*SPEF "ieee 1481-1999"
*DESIGN "cordic"
*DATE "11:11:11 Fri 11 11, 1111"
*VENDOR "OpenRCX"
*PROGRAM "Parallel Extraction"
*VERSION "1.0"
*DESIGN_FLOW "NAME_SCOPE LOCAL" "PIN_CAP NONE"
*DIVIDER /
*DELIMITER :
*BUS_DELIMITER []
*T_UNIT 1 NS
*C_UNIT 1 PF
*R_UNIT 1 OHM
*L_UNIT 1 HENRY

*NAME_MAP
*1 A[0]
*2 A[1]
*3 A[2]
*4 A[3]
*5 A[4]
*6 A[5]
*7 A[6]
*8 A[7]
*9 A[8]
*10 A[9]
*11 B[0]
*12 B[1]
*13 B[2]
*14 B[3]
*15 B[4]
*16 B[5]
*17 B[6]
*18 B[7]
*19 B[8]
*20 B[9]
*21 Ci
*22 Co
*23 S[0]
*24 S[1]
*25 S[2]
*26 S[3]
*27 S[4]
*28 S[5]
*29 S[6]
*30 S[7]
*31 S[8]
*32 S[9]
*35 _000_
*36 _001_
*37 _002_
*38 _003_
*39 _004_
*40 _005_
*41 _006_
*42 _007_
*43 _008_
*44 _009_
*45 _010_
*46 _011_
*47 _012_
*48 _013_
*49 _014_
*50 _015_
*51 _016_
*52 _017_
*53 _018_
*54 _019_
*55 _020_
*56 _021_
*57 _022_
*58 _023_
*59 _024_
*60 _025_
*61 _026_
*62 _027_
*63 _028_
*64 _029_
*65 _030_
*66 _031_
*67 _032_
*68 _033_
*69 _034_
*70 _035_
*71 _036_
*72 _037_
*73 _038_
*74 _039_
*75 _040_
*76 _041_
*77 _042_
*78 _043_
*79 _044_
*80 _045_
*81 net1
*82 net10
*83 net11
*84 net12
*85 net13
*86 net14
*87 net15
*88 net16
*89 net17
*90 net18
*91 net19
*92 net2
*93 net20
*94 net21
*95 net22
*96 net23
*97 net24
*98 net25
*99 net26
*100 net27
*101 net28
*102 net29
*103 net3
*104 net30
*105 net31
*106 net32
*107 net4
*108 net5
*109 net6
*110 net7
*111 net8
*112 net9
*113 ANTENNA__048__A
*114 ANTENNA__048__B
*115 ANTENNA__049__A
*116 ANTENNA__049__B
*117 ANTENNA__051__A
*118 ANTENNA__051__B
*119 ANTENNA__052__A
*120 ANTENNA__052__B
*121 ANTENNA__053__A1
*122 ANTENNA__054__B
*123 ANTENNA__055__B
*124 ANTENNA__058__B
*125 ANTENNA__060__A
*126 ANTENNA__060__B
*127 ANTENNA__061__A
*128 ANTENNA__061__B
*129 ANTENNA__062__B
*130 ANTENNA__067__A
*131 ANTENNA__067__B
*132 ANTENNA__068__B
*133 ANTENNA__069__B
*134 ANTENNA__073__A1
*135 ANTENNA__073__A2
*136 ANTENNA__073__C1
*137 ANTENNA__074__A1
*138 ANTENNA__074__A2
*139 ANTENNA__081__A
*140 ANTENNA_input10_A
*141 ANTENNA_input11_A
*142 ANTENNA_input12_A
*143 ANTENNA_input13_A
*144 ANTENNA_input14_A
*145 ANTENNA_input15_A
*146 ANTENNA_input16_A
*147 ANTENNA_input17_A
*148 ANTENNA_input18_A
*149 ANTENNA_input19_A
*150 ANTENNA_input1_A
*151 ANTENNA_input20_A
*152 ANTENNA_input21_A
*153 ANTENNA_input2_A
*154 ANTENNA_input3_A
*155 ANTENNA_input4_A
*156 ANTENNA_input5_A
*157 ANTENNA_input6_A
*158 ANTENNA_input7_A
*159 ANTENNA_input8_A
*160 ANTENNA_input9_A
*161 ANTENNA_output22_A
*162 ANTENNA_output23_A
*163 ANTENNA_output24_A
*164 ANTENNA_output25_A
*165 ANTENNA_output26_A
*166 ANTENNA_output28_A
*167 FILLER_0_109
*168 FILLER_0_11
*169 FILLER_0_113
*170 FILLER_0_121
*171 FILLER_0_128
*172 FILLER_0_134
*173 FILLER_0_141
*174 FILLER_0_153
*175 FILLER_0_165
*176 FILLER_0_169
*177 FILLER_0_173
*178 FILLER_0_178
*179 FILLER_0_186
*180 FILLER_0_24
*181 FILLER_0_3
*182 FILLER_0_31
*183 FILLER_0_43
*184 FILLER_0_55
*185 FILLER_0_57
*186 FILLER_0_63
*187 FILLER_0_66
*188 FILLER_0_74
*189 FILLER_0_82
*190 FILLER_0_85
*191 FILLER_0_97
*192 FILLER_10_109
*193 FILLER_10_121
*194 FILLER_10_133
*195 FILLER_10_139
*196 FILLER_10_141
*197 FILLER_10_15
*198 FILLER_10_153
*199 FILLER_10_165
*200 FILLER_10_177
*201 FILLER_10_189
*202 FILLER_10_27
*203 FILLER_10_29
*204 FILLER_10_3
*205 FILLER_10_41
*206 FILLER_10_53
*207 FILLER_10_65
*208 FILLER_10_77
*209 FILLER_10_83
*210 FILLER_10_85
*211 FILLER_10_97
*212 FILLER_11_105
*213 FILLER_11_111
*214 FILLER_11_113
*215 FILLER_11_125
*216 FILLER_11_137
*217 FILLER_11_149
*218 FILLER_11_15
*219 FILLER_11_161
*220 FILLER_11_167
*221 FILLER_11_169
*222 FILLER_11_181
*223 FILLER_11_189
*224 FILLER_11_27
*225 FILLER_11_3
*226 FILLER_11_39
*227 FILLER_11_51
*228 FILLER_11_55
*229 FILLER_11_57
*230 FILLER_11_69
*231 FILLER_11_81
*232 FILLER_11_93
*233 FILLER_12_109
*234 FILLER_12_121
*235 FILLER_12_133
*236 FILLER_12_139
*237 FILLER_12_141
*238 FILLER_12_15
*239 FILLER_12_153
*240 FILLER_12_165
*241 FILLER_12_177
*242 FILLER_12_189
*243 FILLER_12_27
*244 FILLER_12_29
*245 FILLER_12_3
*246 FILLER_12_41
*247 FILLER_12_53
*248 FILLER_12_65
*249 FILLER_12_77
*250 FILLER_12_83
*251 FILLER_12_85
*252 FILLER_12_97
*253 FILLER_13_105
*254 FILLER_13_111
*255 FILLER_13_113
*256 FILLER_13_125
*257 FILLER_13_137
*258 FILLER_13_149
*259 FILLER_13_15
*260 FILLER_13_161
*261 FILLER_13_167
*262 FILLER_13_169
*263 FILLER_13_181
*264 FILLER_13_189
*265 FILLER_13_27
*266 FILLER_13_3
*267 FILLER_13_39
*268 FILLER_13_51
*269 FILLER_13_55
*270 FILLER_13_57
*271 FILLER_13_69
*272 FILLER_13_81
*273 FILLER_13_93
*274 FILLER_14_109
*275 FILLER_14_121
*276 FILLER_14_133
*277 FILLER_14_139
*278 FILLER_14_141
*279 FILLER_14_15
*280 FILLER_14_153
*281 FILLER_14_165
*282 FILLER_14_177
*283 FILLER_14_181
*284 FILLER_14_186
*285 FILLER_14_27
*286 FILLER_14_29
*287 FILLER_14_3
*288 FILLER_14_41
*289 FILLER_14_53
*290 FILLER_14_65
*291 FILLER_14_77
*292 FILLER_14_83
*293 FILLER_14_85
*294 FILLER_14_97
*295 FILLER_15_105
*296 FILLER_15_111
*297 FILLER_15_113
*298 FILLER_15_125
*299 FILLER_15_137
*300 FILLER_15_149
*301 FILLER_15_15
*302 FILLER_15_161
*303 FILLER_15_167
*304 FILLER_15_169
*305 FILLER_15_181
*306 FILLER_15_189
*307 FILLER_15_27
*308 FILLER_15_3
*309 FILLER_15_39
*310 FILLER_15_51
*311 FILLER_15_55
*312 FILLER_15_57
*313 FILLER_15_69
*314 FILLER_15_81
*315 FILLER_15_93
*316 FILLER_16_109
*317 FILLER_16_121
*318 FILLER_16_133
*319 FILLER_16_139
*320 FILLER_16_141
*321 FILLER_16_15
*322 FILLER_16_153
*323 FILLER_16_165
*324 FILLER_16_177
*325 FILLER_16_189
*326 FILLER_16_27
*327 FILLER_16_29
*328 FILLER_16_3
*329 FILLER_16_41
*330 FILLER_16_53
*331 FILLER_16_65
*332 FILLER_16_77
*333 FILLER_16_83
*334 FILLER_16_85
*335 FILLER_16_97
*336 FILLER_17_105
*337 FILLER_17_111
*338 FILLER_17_113
*339 FILLER_17_125
*340 FILLER_17_137
*341 FILLER_17_149
*342 FILLER_17_15
*343 FILLER_17_161
*344 FILLER_17_167
*345 FILLER_17_169
*346 FILLER_17_181
*347 FILLER_17_189
*348 FILLER_17_27
*349 FILLER_17_3
*350 FILLER_17_39
*351 FILLER_17_51
*352 FILLER_17_55
*353 FILLER_17_57
*354 FILLER_17_69
*355 FILLER_17_81
*356 FILLER_17_93
*357 FILLER_18_109
*358 FILLER_18_121
*359 FILLER_18_133
*360 FILLER_18_139
*361 FILLER_18_141
*362 FILLER_18_15
*363 FILLER_18_153
*364 FILLER_18_165
*365 FILLER_18_177
*366 FILLER_18_189
*367 FILLER_18_27
*368 FILLER_18_29
*369 FILLER_18_3
*370 FILLER_18_41
*371 FILLER_18_53
*372 FILLER_18_65
*373 FILLER_18_77
*374 FILLER_18_83
*375 FILLER_18_85
*376 FILLER_18_97
*377 FILLER_19_105
*378 FILLER_19_111
*379 FILLER_19_113
*380 FILLER_19_125
*381 FILLER_19_137
*382 FILLER_19_149
*383 FILLER_19_15
*384 FILLER_19_161
*385 FILLER_19_167
*386 FILLER_19_169
*387 FILLER_19_181
*388 FILLER_19_189
*389 FILLER_19_27
*390 FILLER_19_3
*391 FILLER_19_39
*392 FILLER_19_51
*393 FILLER_19_55
*394 FILLER_19_57
*395 FILLER_19_69
*396 FILLER_19_81
*397 FILLER_19_93
*398 FILLER_1_105
*399 FILLER_1_111
*400 FILLER_1_113
*401 FILLER_1_125
*402 FILLER_1_137
*403 FILLER_1_149
*404 FILLER_1_15
*405 FILLER_1_161
*406 FILLER_1_167
*407 FILLER_1_169
*408 FILLER_1_177
*409 FILLER_1_180
*410 FILLER_1_186
*411 FILLER_1_27
*412 FILLER_1_3
*413 FILLER_1_39
*414 FILLER_1_51
*415 FILLER_1_55
*416 FILLER_1_57
*417 FILLER_1_69
*418 FILLER_1_81
*419 FILLER_1_93
*420 FILLER_20_109
*421 FILLER_20_121
*422 FILLER_20_133
*423 FILLER_20_139
*424 FILLER_20_141
*425 FILLER_20_15
*426 FILLER_20_153
*427 FILLER_20_165
*428 FILLER_20_177
*429 FILLER_20_183
*430 FILLER_20_186
*431 FILLER_20_27
*432 FILLER_20_29
*433 FILLER_20_3
*434 FILLER_20_41
*435 FILLER_20_53
*436 FILLER_20_65
*437 FILLER_20_77
*438 FILLER_20_83
*439 FILLER_20_85
*440 FILLER_20_97
*441 FILLER_21_105
*442 FILLER_21_111
*443 FILLER_21_113
*444 FILLER_21_125
*445 FILLER_21_137
*446 FILLER_21_149
*447 FILLER_21_15
*448 FILLER_21_161
*449 FILLER_21_167
*450 FILLER_21_169
*451 FILLER_21_175
*452 FILLER_21_186
*453 FILLER_21_27
*454 FILLER_21_3
*455 FILLER_21_39
*456 FILLER_21_51
*457 FILLER_21_55
*458 FILLER_21_57
*459 FILLER_21_69
*460 FILLER_21_81
*461 FILLER_21_93
*462 FILLER_22_109
*463 FILLER_22_121
*464 FILLER_22_133
*465 FILLER_22_139
*466 FILLER_22_141
*467 FILLER_22_15
*468 FILLER_22_153
*469 FILLER_22_165
*470 FILLER_22_177
*471 FILLER_22_189
*472 FILLER_22_27
*473 FILLER_22_29
*474 FILLER_22_3
*475 FILLER_22_41
*476 FILLER_22_53
*477 FILLER_22_65
*478 FILLER_22_77
*479 FILLER_22_83
*480 FILLER_22_85
*481 FILLER_22_97
*482 FILLER_23_105
*483 FILLER_23_111
*484 FILLER_23_113
*485 FILLER_23_125
*486 FILLER_23_13
*487 FILLER_23_137
*488 FILLER_23_149
*489 FILLER_23_161
*490 FILLER_23_167
*491 FILLER_23_169
*492 FILLER_23_181
*493 FILLER_23_189
*494 FILLER_23_25
*495 FILLER_23_37
*496 FILLER_23_49
*497 FILLER_23_55
*498 FILLER_23_57
*499 FILLER_23_69
*500 FILLER_23_7
*501 FILLER_23_81
*502 FILLER_23_93
*503 FILLER_24_109
*504 FILLER_24_121
*505 FILLER_24_133
*506 FILLER_24_139
*507 FILLER_24_141
*508 FILLER_24_15
*509 FILLER_24_153
*510 FILLER_24_165
*511 FILLER_24_177
*512 FILLER_24_189
*513 FILLER_24_27
*514 FILLER_24_29
*515 FILLER_24_3
*516 FILLER_24_41
*517 FILLER_24_53
*518 FILLER_24_65
*519 FILLER_24_77
*520 FILLER_24_83
*521 FILLER_24_85
*522 FILLER_24_97
*523 FILLER_25_105
*524 FILLER_25_111
*525 FILLER_25_113
*526 FILLER_25_125
*527 FILLER_25_137
*528 FILLER_25_149
*529 FILLER_25_15
*530 FILLER_25_161
*531 FILLER_25_167
*532 FILLER_25_169
*533 FILLER_25_181
*534 FILLER_25_189
*535 FILLER_25_27
*536 FILLER_25_3
*537 FILLER_25_39
*538 FILLER_25_51
*539 FILLER_25_55
*540 FILLER_25_57
*541 FILLER_25_69
*542 FILLER_25_81
*543 FILLER_25_93
*544 FILLER_26_109
*545 FILLER_26_121
*546 FILLER_26_133
*547 FILLER_26_139
*548 FILLER_26_141
*549 FILLER_26_15
*550 FILLER_26_153
*551 FILLER_26_165
*552 FILLER_26_177
*553 FILLER_26_189
*554 FILLER_26_27
*555 FILLER_26_29
*556 FILLER_26_3
*557 FILLER_26_41
*558 FILLER_26_53
*559 FILLER_26_65
*560 FILLER_26_77
*561 FILLER_26_83
*562 FILLER_26_85
*563 FILLER_26_97
*564 FILLER_27_105
*565 FILLER_27_111
*566 FILLER_27_113
*567 FILLER_27_125
*568 FILLER_27_137
*569 FILLER_27_149
*570 FILLER_27_15
*571 FILLER_27_161
*572 FILLER_27_167
*573 FILLER_27_169
*574 FILLER_27_181
*575 FILLER_27_189
*576 FILLER_27_27
*577 FILLER_27_3
*578 FILLER_27_39
*579 FILLER_27_51
*580 FILLER_27_55
*581 FILLER_27_57
*582 FILLER_27_69
*583 FILLER_27_81
*584 FILLER_27_93
*585 FILLER_28_109
*586 FILLER_28_121
*587 FILLER_28_133
*588 FILLER_28_139
*589 FILLER_28_141
*590 FILLER_28_15
*591 FILLER_28_153
*592 FILLER_28_165
*593 FILLER_28_179
*594 FILLER_28_186
*595 FILLER_28_27
*596 FILLER_28_29
*597 FILLER_28_3
*598 FILLER_28_41
*599 FILLER_28_53
*600 FILLER_28_65
*601 FILLER_28_77
*602 FILLER_28_83
*603 FILLER_28_85
*604 FILLER_28_97
*605 FILLER_29_105
*606 FILLER_29_111
*607 FILLER_29_113
*608 FILLER_29_125
*609 FILLER_29_137
*610 FILLER_29_149
*611 FILLER_29_15
*612 FILLER_29_161
*613 FILLER_29_167
*614 FILLER_29_169
*615 FILLER_29_181
*616 FILLER_29_189
*617 FILLER_29_23
*618 FILLER_29_28
*619 FILLER_29_3
*620 FILLER_29_45
*621 FILLER_29_53
*622 FILLER_29_57
*623 FILLER_29_69
*624 FILLER_29_81
*625 FILLER_29_93
*626 FILLER_2_109
*627 FILLER_2_121
*628 FILLER_2_133
*629 FILLER_2_139
*630 FILLER_2_141
*631 FILLER_2_15
*632 FILLER_2_153
*633 FILLER_2_165
*634 FILLER_2_177
*635 FILLER_2_189
*636 FILLER_2_27
*637 FILLER_2_29
*638 FILLER_2_3
*639 FILLER_2_41
*640 FILLER_2_53
*641 FILLER_2_65
*642 FILLER_2_77
*643 FILLER_2_83
*644 FILLER_2_85
*645 FILLER_2_97
*646 FILLER_30_109
*647 FILLER_30_121
*648 FILLER_30_133
*649 FILLER_30_139
*650 FILLER_30_141
*651 FILLER_30_15
*652 FILLER_30_153
*653 FILLER_30_165
*654 FILLER_30_177
*655 FILLER_30_189
*656 FILLER_30_27
*657 FILLER_30_29
*658 FILLER_30_3
*659 FILLER_30_41
*660 FILLER_30_53
*661 FILLER_30_65
*662 FILLER_30_77
*663 FILLER_30_83
*664 FILLER_30_85
*665 FILLER_30_97
*666 FILLER_31_105
*667 FILLER_31_111
*668 FILLER_31_113
*669 FILLER_31_125
*670 FILLER_31_137
*671 FILLER_31_149
*672 FILLER_31_15
*673 FILLER_31_161
*674 FILLER_31_167
*675 FILLER_31_169
*676 FILLER_31_181
*677 FILLER_31_189
*678 FILLER_31_27
*679 FILLER_31_3
*680 FILLER_31_39
*681 FILLER_31_51
*682 FILLER_31_55
*683 FILLER_31_57
*684 FILLER_31_69
*685 FILLER_31_81
*686 FILLER_31_93
*687 FILLER_32_109
*688 FILLER_32_121
*689 FILLER_32_133
*690 FILLER_32_139
*691 FILLER_32_141
*692 FILLER_32_15
*693 FILLER_32_153
*694 FILLER_32_165
*695 FILLER_32_177
*696 FILLER_32_189
*697 FILLER_32_21
*698 FILLER_32_24
*699 FILLER_32_3
*700 FILLER_32_31
*701 FILLER_32_43
*702 FILLER_32_55
*703 FILLER_32_67
*704 FILLER_32_79
*705 FILLER_32_83
*706 FILLER_32_85
*707 FILLER_32_97
*708 FILLER_33_105
*709 FILLER_33_111
*710 FILLER_33_113
*711 FILLER_33_125
*712 FILLER_33_13
*713 FILLER_33_137
*714 FILLER_33_149
*715 FILLER_33_161
*716 FILLER_33_167
*717 FILLER_33_169
*718 FILLER_33_181
*719 FILLER_33_189
*720 FILLER_33_22
*721 FILLER_33_29
*722 FILLER_33_3
*723 FILLER_33_36
*724 FILLER_33_48
*725 FILLER_33_57
*726 FILLER_33_69
*727 FILLER_33_81
*728 FILLER_33_93
*729 FILLER_34_109
*730 FILLER_34_12
*731 FILLER_34_121
*732 FILLER_34_133
*733 FILLER_34_139
*734 FILLER_34_141
*735 FILLER_34_153
*736 FILLER_34_165
*737 FILLER_34_177
*738 FILLER_34_189
*739 FILLER_34_24
*740 FILLER_34_3
*741 FILLER_34_31
*742 FILLER_34_43
*743 FILLER_34_55
*744 FILLER_34_67
*745 FILLER_34_79
*746 FILLER_34_83
*747 FILLER_34_85
*748 FILLER_34_9
*749 FILLER_34_97
*750 FILLER_35_105
*751 FILLER_35_111
*752 FILLER_35_113
*753 FILLER_35_125
*754 FILLER_35_137
*755 FILLER_35_149
*756 FILLER_35_15
*757 FILLER_35_161
*758 FILLER_35_167
*759 FILLER_35_169
*760 FILLER_35_179
*761 FILLER_35_186
*762 FILLER_35_27
*763 FILLER_35_3
*764 FILLER_35_39
*765 FILLER_35_51
*766 FILLER_35_55
*767 FILLER_35_57
*768 FILLER_35_69
*769 FILLER_35_81
*770 FILLER_35_93
*771 FILLER_36_109
*772 FILLER_36_121
*773 FILLER_36_133
*774 FILLER_36_139
*775 FILLER_36_141
*776 FILLER_36_15
*777 FILLER_36_153
*778 FILLER_36_165
*779 FILLER_36_177
*780 FILLER_36_189
*781 FILLER_36_27
*782 FILLER_36_29
*783 FILLER_36_3
*784 FILLER_36_41
*785 FILLER_36_53
*786 FILLER_36_65
*787 FILLER_36_77
*788 FILLER_36_83
*789 FILLER_36_85
*790 FILLER_36_97
*791 FILLER_37_105
*792 FILLER_37_111
*793 FILLER_37_113
*794 FILLER_37_125
*795 FILLER_37_137
*796 FILLER_37_149
*797 FILLER_37_15
*798 FILLER_37_161
*799 FILLER_37_167
*800 FILLER_37_169
*801 FILLER_37_181
*802 FILLER_37_189
*803 FILLER_37_27
*804 FILLER_37_3
*805 FILLER_37_39
*806 FILLER_37_51
*807 FILLER_37_55
*808 FILLER_37_57
*809 FILLER_37_69
*810 FILLER_37_81
*811 FILLER_37_93
*812 FILLER_38_109
*813 FILLER_38_121
*814 FILLER_38_133
*815 FILLER_38_139
*816 FILLER_38_141
*817 FILLER_38_15
*818 FILLER_38_153
*819 FILLER_38_165
*820 FILLER_38_177
*821 FILLER_38_186
*822 FILLER_38_27
*823 FILLER_38_29
*824 FILLER_38_3
*825 FILLER_38_41
*826 FILLER_38_53
*827 FILLER_38_65
*828 FILLER_38_77
*829 FILLER_38_83
*830 FILLER_38_85
*831 FILLER_38_97
*832 FILLER_39_105
*833 FILLER_39_111
*834 FILLER_39_113
*835 FILLER_39_125
*836 FILLER_39_137
*837 FILLER_39_149
*838 FILLER_39_15
*839 FILLER_39_161
*840 FILLER_39_167
*841 FILLER_39_171
*842 FILLER_39_175
*843 FILLER_39_186
*844 FILLER_39_27
*845 FILLER_39_3
*846 FILLER_39_39
*847 FILLER_39_51
*848 FILLER_39_55
*849 FILLER_39_57
*850 FILLER_39_69
*851 FILLER_39_81
*852 FILLER_39_93
*853 FILLER_3_105
*854 FILLER_3_111
*855 FILLER_3_113
*856 FILLER_3_125
*857 FILLER_3_137
*858 FILLER_3_149
*859 FILLER_3_15
*860 FILLER_3_161
*861 FILLER_3_167
*862 FILLER_3_169
*863 FILLER_3_181
*864 FILLER_3_189
*865 FILLER_3_27
*866 FILLER_3_3
*867 FILLER_3_39
*868 FILLER_3_51
*869 FILLER_3_55
*870 FILLER_3_57
*871 FILLER_3_69
*872 FILLER_3_81
*873 FILLER_3_93
*874 FILLER_40_109
*875 FILLER_40_121
*876 FILLER_40_133
*877 FILLER_40_139
*878 FILLER_40_141
*879 FILLER_40_149
*880 FILLER_40_15
*881 FILLER_40_174
*882 FILLER_40_186
*883 FILLER_40_27
*884 FILLER_40_29
*885 FILLER_40_3
*886 FILLER_40_41
*887 FILLER_40_53
*888 FILLER_40_65
*889 FILLER_40_77
*890 FILLER_40_83
*891 FILLER_40_85
*892 FILLER_40_97
*893 FILLER_41_105
*894 FILLER_41_111
*895 FILLER_41_113
*896 FILLER_41_125
*897 FILLER_41_137
*898 FILLER_41_149
*899 FILLER_41_15
*900 FILLER_41_155
*901 FILLER_41_158
*902 FILLER_41_164
*903 FILLER_41_169
*904 FILLER_41_175
*905 FILLER_41_186
*906 FILLER_41_27
*907 FILLER_41_3
*908 FILLER_41_39
*909 FILLER_41_51
*910 FILLER_41_55
*911 FILLER_41_57
*912 FILLER_41_69
*913 FILLER_41_81
*914 FILLER_41_93
*915 FILLER_42_109
*916 FILLER_42_12
*917 FILLER_42_121
*918 FILLER_42_133
*919 FILLER_42_139
*920 FILLER_42_141
*921 FILLER_42_149
*922 FILLER_42_153
*923 FILLER_42_159
*924 FILLER_42_168
*925 FILLER_42_179
*926 FILLER_42_186
*927 FILLER_42_24
*928 FILLER_42_29
*929 FILLER_42_41
*930 FILLER_42_53
*931 FILLER_42_6
*932 FILLER_42_65
*933 FILLER_42_77
*934 FILLER_42_83
*935 FILLER_42_85
*936 FILLER_42_97
*937 FILLER_43_105
*938 FILLER_43_111
*939 FILLER_43_113
*940 FILLER_43_125
*941 FILLER_43_137
*942 FILLER_43_143
*943 FILLER_43_146
*944 FILLER_43_15
*945 FILLER_43_155
*946 FILLER_43_164
*947 FILLER_43_169
*948 FILLER_43_179
*949 FILLER_43_186
*950 FILLER_43_27
*951 FILLER_43_3
*952 FILLER_43_43
*953 FILLER_43_55
*954 FILLER_43_57
*955 FILLER_43_69
*956 FILLER_43_81
*957 FILLER_43_93
*958 FILLER_44_109
*959 FILLER_44_121
*960 FILLER_44_133
*961 FILLER_44_139
*962 FILLER_44_143
*963 FILLER_44_153
*964 FILLER_44_161
*965 FILLER_44_169
*966 FILLER_44_18
*967 FILLER_44_182
*968 FILLER_44_24
*969 FILLER_44_3
*970 FILLER_44_32
*971 FILLER_44_44
*972 FILLER_44_56
*973 FILLER_44_68
*974 FILLER_44_80
*975 FILLER_44_85
*976 FILLER_44_97
*977 FILLER_45_106
*978 FILLER_45_115
*979 FILLER_45_127
*980 FILLER_45_134
*981 FILLER_45_15
*982 FILLER_45_159
*983 FILLER_45_167
*984 FILLER_45_173
*985 FILLER_45_184
*986 FILLER_45_21
*987 FILLER_45_25
*988 FILLER_45_3
*989 FILLER_45_39
*990 FILLER_45_51
*991 FILLER_45_55
*992 FILLER_45_57
*993 FILLER_45_69
*994 FILLER_45_81
*995 FILLER_45_88
*996 FILLER_45_98
*997 FILLER_46_102
*998 FILLER_46_111
*999 FILLER_46_118
*1000 FILLER_46_122
*1001 FILLER_46_129
*1002 FILLER_46_137
*1003 FILLER_46_141
*1004 FILLER_46_149
*1005 FILLER_46_15
*1006 FILLER_46_156
*1007 FILLER_46_165
*1008 FILLER_46_186
*1009 FILLER_46_23
*1010 FILLER_46_27
*1011 FILLER_46_29
*1012 FILLER_46_3
*1013 FILLER_46_41
*1014 FILLER_46_53
*1015 FILLER_46_65
*1016 FILLER_46_77
*1017 FILLER_46_83
*1018 FILLER_46_85
*1019 FILLER_46_89
*1020 FILLER_46_95
*1021 FILLER_47_104
*1022 FILLER_47_113
*1023 FILLER_47_126
*1024 FILLER_47_138
*1025 FILLER_47_15
*1026 FILLER_47_150
*1027 FILLER_47_154
*1028 FILLER_47_160
*1029 FILLER_47_169
*1030 FILLER_47_175
*1031 FILLER_47_186
*1032 FILLER_47_27
*1033 FILLER_47_3
*1034 FILLER_47_39
*1035 FILLER_47_51
*1036 FILLER_47_55
*1037 FILLER_47_57
*1038 FILLER_47_69
*1039 FILLER_47_81
*1040 FILLER_47_93
*1041 FILLER_48_101
*1042 FILLER_48_107
*1043 FILLER_48_110
*1044 FILLER_48_122
*1045 FILLER_48_134
*1046 FILLER_48_141
*1047 FILLER_48_15
*1048 FILLER_48_153
*1049 FILLER_48_157
*1050 FILLER_48_160
*1051 FILLER_48_164
*1052 FILLER_48_167
*1053 FILLER_48_173
*1054 FILLER_48_182
*1055 FILLER_48_27
*1056 FILLER_48_29
*1057 FILLER_48_3
*1058 FILLER_48_41
*1059 FILLER_48_53
*1060 FILLER_48_65
*1061 FILLER_48_77
*1062 FILLER_48_83
*1063 FILLER_48_85
*1064 FILLER_48_93
*1065 FILLER_49_101
*1066 FILLER_49_108
*1067 FILLER_49_113
*1068 FILLER_49_130
*1069 FILLER_49_142
*1070 FILLER_49_15
*1071 FILLER_49_154
*1072 FILLER_49_166
*1073 FILLER_49_171
*1074 FILLER_49_179
*1075 FILLER_49_186
*1076 FILLER_49_27
*1077 FILLER_49_3
*1078 FILLER_49_39
*1079 FILLER_49_51
*1080 FILLER_49_55
*1081 FILLER_49_57
*1082 FILLER_49_69
*1083 FILLER_49_81
*1084 FILLER_49_93
*1085 FILLER_4_109
*1086 FILLER_4_121
*1087 FILLER_4_133
*1088 FILLER_4_139
*1089 FILLER_4_141
*1090 FILLER_4_153
*1091 FILLER_4_165
*1092 FILLER_4_177
*1093 FILLER_4_189
*1094 FILLER_4_19
*1095 FILLER_4_27
*1096 FILLER_4_29
*1097 FILLER_4_3
*1098 FILLER_4_41
*1099 FILLER_4_53
*1100 FILLER_4_65
*1101 FILLER_4_7
*1102 FILLER_4_77
*1103 FILLER_4_83
*1104 FILLER_4_85
*1105 FILLER_4_97
*1106 FILLER_50_106
*1107 FILLER_50_112
*1108 FILLER_50_124
*1109 FILLER_50_136
*1110 FILLER_50_141
*1111 FILLER_50_15
*1112 FILLER_50_153
*1113 FILLER_50_165
*1114 FILLER_50_177
*1115 FILLER_50_189
*1116 FILLER_50_27
*1117 FILLER_50_29
*1118 FILLER_50_3
*1119 FILLER_50_41
*1120 FILLER_50_53
*1121 FILLER_50_65
*1122 FILLER_50_77
*1123 FILLER_50_83
*1124 FILLER_50_85
*1125 FILLER_50_97
*1126 FILLER_51_105
*1127 FILLER_51_111
*1128 FILLER_51_113
*1129 FILLER_51_125
*1130 FILLER_51_137
*1131 FILLER_51_149
*1132 FILLER_51_15
*1133 FILLER_51_161
*1134 FILLER_51_167
*1135 FILLER_51_169
*1136 FILLER_51_181
*1137 FILLER_51_189
*1138 FILLER_51_27
*1139 FILLER_51_3
*1140 FILLER_51_39
*1141 FILLER_51_51
*1142 FILLER_51_55
*1143 FILLER_51_57
*1144 FILLER_51_69
*1145 FILLER_51_81
*1146 FILLER_51_93
*1147 FILLER_52_109
*1148 FILLER_52_121
*1149 FILLER_52_133
*1150 FILLER_52_139
*1151 FILLER_52_141
*1152 FILLER_52_15
*1153 FILLER_52_153
*1154 FILLER_52_165
*1155 FILLER_52_177
*1156 FILLER_52_189
*1157 FILLER_52_27
*1158 FILLER_52_29
*1159 FILLER_52_3
*1160 FILLER_52_41
*1161 FILLER_52_53
*1162 FILLER_52_65
*1163 FILLER_52_77
*1164 FILLER_52_83
*1165 FILLER_52_85
*1166 FILLER_52_97
*1167 FILLER_53_105
*1168 FILLER_53_111
*1169 FILLER_53_113
*1170 FILLER_53_125
*1171 FILLER_53_137
*1172 FILLER_53_149
*1173 FILLER_53_15
*1174 FILLER_53_161
*1175 FILLER_53_167
*1176 FILLER_53_169
*1177 FILLER_53_181
*1178 FILLER_53_189
*1179 FILLER_53_27
*1180 FILLER_53_3
*1181 FILLER_53_39
*1182 FILLER_53_51
*1183 FILLER_53_55
*1184 FILLER_53_57
*1185 FILLER_53_69
*1186 FILLER_53_81
*1187 FILLER_53_93
*1188 FILLER_54_109
*1189 FILLER_54_121
*1190 FILLER_54_133
*1191 FILLER_54_139
*1192 FILLER_54_141
*1193 FILLER_54_15
*1194 FILLER_54_153
*1195 FILLER_54_165
*1196 FILLER_54_177
*1197 FILLER_54_189
*1198 FILLER_54_27
*1199 FILLER_54_29
*1200 FILLER_54_3
*1201 FILLER_54_41
*1202 FILLER_54_53
*1203 FILLER_54_65
*1204 FILLER_54_77
*1205 FILLER_54_83
*1206 FILLER_54_85
*1207 FILLER_54_97
*1208 FILLER_55_105
*1209 FILLER_55_111
*1210 FILLER_55_113
*1211 FILLER_55_125
*1212 FILLER_55_137
*1213 FILLER_55_149
*1214 FILLER_55_15
*1215 FILLER_55_161
*1216 FILLER_55_167
*1217 FILLER_55_169
*1218 FILLER_55_181
*1219 FILLER_55_189
*1220 FILLER_55_27
*1221 FILLER_55_3
*1222 FILLER_55_39
*1223 FILLER_55_51
*1224 FILLER_55_55
*1225 FILLER_55_57
*1226 FILLER_55_69
*1227 FILLER_55_81
*1228 FILLER_55_93
*1229 FILLER_56_109
*1230 FILLER_56_121
*1231 FILLER_56_133
*1232 FILLER_56_139
*1233 FILLER_56_141
*1234 FILLER_56_15
*1235 FILLER_56_153
*1236 FILLER_56_165
*1237 FILLER_56_179
*1238 FILLER_56_186
*1239 FILLER_56_27
*1240 FILLER_56_29
*1241 FILLER_56_3
*1242 FILLER_56_41
*1243 FILLER_56_53
*1244 FILLER_56_65
*1245 FILLER_56_77
*1246 FILLER_56_83
*1247 FILLER_56_85
*1248 FILLER_56_97
*1249 FILLER_57_105
*1250 FILLER_57_111
*1251 FILLER_57_113
*1252 FILLER_57_125
*1253 FILLER_57_137
*1254 FILLER_57_149
*1255 FILLER_57_15
*1256 FILLER_57_161
*1257 FILLER_57_167
*1258 FILLER_57_169
*1259 FILLER_57_181
*1260 FILLER_57_189
*1261 FILLER_57_27
*1262 FILLER_57_3
*1263 FILLER_57_39
*1264 FILLER_57_51
*1265 FILLER_57_55
*1266 FILLER_57_57
*1267 FILLER_57_69
*1268 FILLER_57_81
*1269 FILLER_57_93
*1270 FILLER_58_109
*1271 FILLER_58_121
*1272 FILLER_58_133
*1273 FILLER_58_139
*1274 FILLER_58_141
*1275 FILLER_58_15
*1276 FILLER_58_153
*1277 FILLER_58_165
*1278 FILLER_58_177
*1279 FILLER_58_189
*1280 FILLER_58_27
*1281 FILLER_58_29
*1282 FILLER_58_3
*1283 FILLER_58_41
*1284 FILLER_58_53
*1285 FILLER_58_65
*1286 FILLER_58_77
*1287 FILLER_58_83
*1288 FILLER_58_85
*1289 FILLER_58_97
*1290 FILLER_59_105
*1291 FILLER_59_111
*1292 FILLER_59_113
*1293 FILLER_59_125
*1294 FILLER_59_137
*1295 FILLER_59_149
*1296 FILLER_59_161
*1297 FILLER_59_167
*1298 FILLER_59_169
*1299 FILLER_59_17
*1300 FILLER_59_186
*1301 FILLER_59_29
*1302 FILLER_59_41
*1303 FILLER_59_5
*1304 FILLER_59_53
*1305 FILLER_59_57
*1306 FILLER_59_69
*1307 FILLER_59_81
*1308 FILLER_59_93
*1309 FILLER_5_105
*1310 FILLER_5_11
*1311 FILLER_5_111
*1312 FILLER_5_113
*1313 FILLER_5_125
*1314 FILLER_5_137
*1315 FILLER_5_149
*1316 FILLER_5_161
*1317 FILLER_5_167
*1318 FILLER_5_169
*1319 FILLER_5_181
*1320 FILLER_5_189
*1321 FILLER_5_23
*1322 FILLER_5_3
*1323 FILLER_5_35
*1324 FILLER_5_47
*1325 FILLER_5_55
*1326 FILLER_5_57
*1327 FILLER_5_69
*1328 FILLER_5_81
*1329 FILLER_5_93
*1330 FILLER_60_109
*1331 FILLER_60_121
*1332 FILLER_60_13
*1333 FILLER_60_133
*1334 FILLER_60_139
*1335 FILLER_60_141
*1336 FILLER_60_153
*1337 FILLER_60_165
*1338 FILLER_60_179
*1339 FILLER_60_186
*1340 FILLER_60_25
*1341 FILLER_60_29
*1342 FILLER_60_41
*1343 FILLER_60_53
*1344 FILLER_60_65
*1345 FILLER_60_77
*1346 FILLER_60_83
*1347 FILLER_60_85
*1348 FILLER_60_97
*1349 FILLER_61_105
*1350 FILLER_61_111
*1351 FILLER_61_113
*1352 FILLER_61_125
*1353 FILLER_61_137
*1354 FILLER_61_149
*1355 FILLER_61_15
*1356 FILLER_61_161
*1357 FILLER_61_167
*1358 FILLER_61_169
*1359 FILLER_61_174
*1360 FILLER_61_186
*1361 FILLER_61_27
*1362 FILLER_61_3
*1363 FILLER_61_39
*1364 FILLER_61_51
*1365 FILLER_61_55
*1366 FILLER_61_57
*1367 FILLER_61_69
*1368 FILLER_61_81
*1369 FILLER_61_93
*1370 FILLER_62_109
*1371 FILLER_62_121
*1372 FILLER_62_133
*1373 FILLER_62_139
*1374 FILLER_62_141
*1375 FILLER_62_15
*1376 FILLER_62_153
*1377 FILLER_62_165
*1378 FILLER_62_177
*1379 FILLER_62_186
*1380 FILLER_62_27
*1381 FILLER_62_29
*1382 FILLER_62_3
*1383 FILLER_62_41
*1384 FILLER_62_53
*1385 FILLER_62_65
*1386 FILLER_62_77
*1387 FILLER_62_83
*1388 FILLER_62_85
*1389 FILLER_62_97
*1390 FILLER_63_105
*1391 FILLER_63_111
*1392 FILLER_63_113
*1393 FILLER_63_125
*1394 FILLER_63_137
*1395 FILLER_63_149
*1396 FILLER_63_15
*1397 FILLER_63_161
*1398 FILLER_63_167
*1399 FILLER_63_169
*1400 FILLER_63_179
*1401 FILLER_63_186
*1402 FILLER_63_27
*1403 FILLER_63_3
*1404 FILLER_63_39
*1405 FILLER_63_51
*1406 FILLER_63_55
*1407 FILLER_63_57
*1408 FILLER_63_69
*1409 FILLER_63_81
*1410 FILLER_63_93
*1411 FILLER_64_109
*1412 FILLER_64_121
*1413 FILLER_64_133
*1414 FILLER_64_139
*1415 FILLER_64_141
*1416 FILLER_64_15
*1417 FILLER_64_153
*1418 FILLER_64_165
*1419 FILLER_64_177
*1420 FILLER_64_186
*1421 FILLER_64_27
*1422 FILLER_64_29
*1423 FILLER_64_3
*1424 FILLER_64_41
*1425 FILLER_64_53
*1426 FILLER_64_65
*1427 FILLER_64_77
*1428 FILLER_64_83
*1429 FILLER_64_85
*1430 FILLER_64_97
*1431 FILLER_65_105
*1432 FILLER_65_111
*1433 FILLER_65_113
*1434 FILLER_65_125
*1435 FILLER_65_137
*1436 FILLER_65_149
*1437 FILLER_65_15
*1438 FILLER_65_161
*1439 FILLER_65_167
*1440 FILLER_65_169
*1441 FILLER_65_181
*1442 FILLER_65_189
*1443 FILLER_65_27
*1444 FILLER_65_3
*1445 FILLER_65_39
*1446 FILLER_65_51
*1447 FILLER_65_55
*1448 FILLER_65_57
*1449 FILLER_65_69
*1450 FILLER_65_81
*1451 FILLER_65_93
*1452 FILLER_66_109
*1453 FILLER_66_121
*1454 FILLER_66_133
*1455 FILLER_66_139
*1456 FILLER_66_141
*1457 FILLER_66_15
*1458 FILLER_66_153
*1459 FILLER_66_165
*1460 FILLER_66_177
*1461 FILLER_66_186
*1462 FILLER_66_27
*1463 FILLER_66_29
*1464 FILLER_66_3
*1465 FILLER_66_41
*1466 FILLER_66_53
*1467 FILLER_66_65
*1468 FILLER_66_77
*1469 FILLER_66_83
*1470 FILLER_66_85
*1471 FILLER_66_97
*1472 FILLER_67_105
*1473 FILLER_67_111
*1474 FILLER_67_113
*1475 FILLER_67_125
*1476 FILLER_67_137
*1477 FILLER_67_149
*1478 FILLER_67_15
*1479 FILLER_67_161
*1480 FILLER_67_167
*1481 FILLER_67_169
*1482 FILLER_67_186
*1483 FILLER_67_27
*1484 FILLER_67_3
*1485 FILLER_67_39
*1486 FILLER_67_51
*1487 FILLER_67_55
*1488 FILLER_67_57
*1489 FILLER_67_69
*1490 FILLER_67_81
*1491 FILLER_67_93
*1492 FILLER_68_109
*1493 FILLER_68_121
*1494 FILLER_68_133
*1495 FILLER_68_139
*1496 FILLER_68_141
*1497 FILLER_68_15
*1498 FILLER_68_153
*1499 FILLER_68_165
*1500 FILLER_68_177
*1501 FILLER_68_186
*1502 FILLER_68_27
*1503 FILLER_68_29
*1504 FILLER_68_3
*1505 FILLER_68_41
*1506 FILLER_68_53
*1507 FILLER_68_65
*1508 FILLER_68_77
*1509 FILLER_68_83
*1510 FILLER_68_85
*1511 FILLER_68_97
*1512 FILLER_69_105
*1513 FILLER_69_111
*1514 FILLER_69_113
*1515 FILLER_69_125
*1516 FILLER_69_137
*1517 FILLER_69_149
*1518 FILLER_69_15
*1519 FILLER_69_161
*1520 FILLER_69_167
*1521 FILLER_69_169
*1522 FILLER_69_181
*1523 FILLER_69_189
*1524 FILLER_69_27
*1525 FILLER_69_3
*1526 FILLER_69_39
*1527 FILLER_69_51
*1528 FILLER_69_55
*1529 FILLER_69_57
*1530 FILLER_69_69
*1531 FILLER_69_81
*1532 FILLER_69_93
*1533 FILLER_6_109
*1534 FILLER_6_121
*1535 FILLER_6_133
*1536 FILLER_6_139
*1537 FILLER_6_141
*1538 FILLER_6_15
*1539 FILLER_6_153
*1540 FILLER_6_165
*1541 FILLER_6_177
*1542 FILLER_6_189
*1543 FILLER_6_27
*1544 FILLER_6_29
*1545 FILLER_6_3
*1546 FILLER_6_41
*1547 FILLER_6_53
*1548 FILLER_6_65
*1549 FILLER_6_77
*1550 FILLER_6_83
*1551 FILLER_6_85
*1552 FILLER_6_97
*1553 FILLER_70_109
*1554 FILLER_70_121
*1555 FILLER_70_133
*1556 FILLER_70_139
*1557 FILLER_70_141
*1558 FILLER_70_15
*1559 FILLER_70_153
*1560 FILLER_70_165
*1561 FILLER_70_177
*1562 FILLER_70_181
*1563 FILLER_70_186
*1564 FILLER_70_27
*1565 FILLER_70_29
*1566 FILLER_70_3
*1567 FILLER_70_41
*1568 FILLER_70_53
*1569 FILLER_70_65
*1570 FILLER_70_77
*1571 FILLER_70_83
*1572 FILLER_70_85
*1573 FILLER_70_97
*1574 FILLER_71_105
*1575 FILLER_71_111
*1576 FILLER_71_113
*1577 FILLER_71_125
*1578 FILLER_71_137
*1579 FILLER_71_149
*1580 FILLER_71_15
*1581 FILLER_71_161
*1582 FILLER_71_167
*1583 FILLER_71_169
*1584 FILLER_71_181
*1585 FILLER_71_189
*1586 FILLER_71_27
*1587 FILLER_71_3
*1588 FILLER_71_39
*1589 FILLER_71_51
*1590 FILLER_71_55
*1591 FILLER_71_57
*1592 FILLER_71_69
*1593 FILLER_71_81
*1594 FILLER_71_93
*1595 FILLER_72_109
*1596 FILLER_72_121
*1597 FILLER_72_133
*1598 FILLER_72_139
*1599 FILLER_72_141
*1600 FILLER_72_15
*1601 FILLER_72_153
*1602 FILLER_72_165
*1603 FILLER_72_177
*1604 FILLER_72_189
*1605 FILLER_72_27
*1606 FILLER_72_29
*1607 FILLER_72_3
*1608 FILLER_72_41
*1609 FILLER_72_53
*1610 FILLER_72_65
*1611 FILLER_72_77
*1612 FILLER_72_83
*1613 FILLER_72_85
*1614 FILLER_72_97
*1615 FILLER_73_105
*1616 FILLER_73_111
*1617 FILLER_73_113
*1618 FILLER_73_125
*1619 FILLER_73_137
*1620 FILLER_73_149
*1621 FILLER_73_15
*1622 FILLER_73_161
*1623 FILLER_73_167
*1624 FILLER_73_169
*1625 FILLER_73_181
*1626 FILLER_73_189
*1627 FILLER_73_27
*1628 FILLER_73_3