*SPEF "ieee 1481-1999"
*DESIGN "cordic"
*DATE "11:11:11 Fri 11 11, 1111"
*VENDOR "OpenRCX"
*PROGRAM "Parallel Extraction"
*VERSION "1.0"
*DESIGN_FLOW "NAME_SCOPE LOCAL" "PIN_CAP NONE"
*DIVIDER /
*DELIMITER :
*BUS_DELIMITER []
*T_UNIT 1 NS
*C_UNIT 1 PF
*R_UNIT 1 OHM
*L_UNIT 1 HENRY

*NAME_MAP
*1 A[0]
*2 A[1]
*3 A[2]
*4 A[3]
*5 A[4]
*6 A[5]
*7 A[6]
*8 A[7]
*9 A[8]
*10 A[9]
*11 B[0]
*12 B[1]
*13 B[2]
*14 B[3]
*15 B[4]
*16 B[5]
*17 B[6]
*18 B[7]
*19 B[8]
*20 B[9]
*21 Ci
*22 Co
*23 S[0]
*24 S[1]
*25 S[2]
*26 S[3]
*27 S[4]
*28 S[5]
*29 S[6]
*30 S[7]
*31 S[8]
*32 S[9]
*33 net44
*34 net54
*35 net55
*36 net56
*37 net57
*38 net58
*39 net59
*40 net60
*41 net61
*42 net62
*43 net63
*44 net45
*45 net33
*46 net34
*47 net35
*48 net36
*49 net37
*50 net38
*51 net39
*52 net40
*53 net41
*54 net42
*55 net46
*56 net64
*57 net43
*58 net47
*59 net48
*60 net49
*61 net50
*62 net51
*63 net52
*64 net53
*67 _000_
*68 _001_
*69 _002_
*70 _003_
*71 _004_
*72 _005_
*73 _006_
*74 _007_
*75 _008_
*76 _009_
*77 _010_
*78 _011_
*79 _012_
*80 _013_
*81 _014_
*82 _015_
*83 _016_
*84 _017_
*85 _018_
*86 _019_
*87 _020_
*88 _021_
*89 _022_
*90 _023_
*91 _024_
*92 _025_
*93 _026_
*94 _027_
*95 _028_
*96 _029_
*97 _030_
*98 _031_
*99 _032_
*100 _033_
*101 _034_
*102 _035_
*103 _036_
*104 _037_
*105 _038_
*106 _039_
*107 _040_
*108 _041_
*109 _042_
*110 _043_
*111 _044_
*112 _045_
*113 net1
*114 net10
*115 net11
*116 net12
*117 net13
*118 net14
*119 net15
*120 net16
*121 net17
*122 net18
*123 net19
*124 net2
*125 net20
*126 net21
*127 net22
*128 net23
*129 net24
*130 net25
*131 net26
*132 net27
*133 net28
*134 net29
*135 net3
*136 net30
*137 net31
*138 net32
*139 net4
*140 net5
*141 net6
*142 net7
*143 net8
*144 net9
*145 ANTENNA__051__B
*146 ANTENNA__052__B
*147 ANTENNA__053__A1
*148 ANTENNA__054__A
*149 ANTENNA__055__A
*150 ANTENNA__060__A
*151 ANTENNA__061__A
*152 ANTENNA__067__B
*153 ANTENNA__068__B
*154 ANTENNA__069__B
*155 ANTENNA__073__A2
*156 ANTENNA__073__C1
*157 ANTENNA__074__A2
*158 ANTENNA__081__A
*159 ANTENNA_input10_A
*160 ANTENNA_input11_A
*161 ANTENNA_input12_A
*162 ANTENNA_input13_A
*163 ANTENNA_input14_A
*164 ANTENNA_input15_A
*165 ANTENNA_input16_A
*166 ANTENNA_input17_A
*167 ANTENNA_input18_A
*168 ANTENNA_input19_A
*169 ANTENNA_input1_A
*170 ANTENNA_input20_A
*171 ANTENNA_input21_A
*172 ANTENNA_input2_A
*173 ANTENNA_input3_A
*174 ANTENNA_input4_A
*175 ANTENNA_input5_A
*176 ANTENNA_input6_A
*177 ANTENNA_input7_A
*178 ANTENNA_input8_A
*179 ANTENNA_input9_A
*180 ANTENNA_output22_A
*181 ANTENNA_output25_A
*182 ANTENNA_output28_A
*183 ANTENNA_output29_A
*184 ANTENNA_output31_A
*185 FILLER_0_109
*186 FILLER_0_113
*187 FILLER_0_117
*188 FILLER_0_12
*189 FILLER_0_120
*190 FILLER_0_128
*191 FILLER_0_141
*192 FILLER_0_153
*193 FILLER_0_165
*194 FILLER_0_169
*195 FILLER_0_174
*196 FILLER_0_182
*197 FILLER_0_22
*198 FILLER_0_29
*199 FILLER_0_3
*200 FILLER_0_41
*201 FILLER_0_53
*202 FILLER_0_57
*203 FILLER_0_69
*204 FILLER_0_74
*205 FILLER_0_80
*206 FILLER_0_85
*207 FILLER_0_9
*208 FILLER_0_97
*209 FILLER_10_109
*210 FILLER_10_121
*211 FILLER_10_133
*212 FILLER_10_139
*213 FILLER_10_141
*214 FILLER_10_153
*215 FILLER_10_165
*216 FILLER_10_177
*217 FILLER_10_189
*218 FILLER_10_19
*219 FILLER_10_27
*220 FILLER_10_29
*221 FILLER_10_3
*222 FILLER_10_41
*223 FILLER_10_53
*224 FILLER_10_65
*225 FILLER_10_7
*226 FILLER_10_77
*227 FILLER_10_83
*228 FILLER_10_85
*229 FILLER_10_97
*230 FILLER_11_105
*231 FILLER_11_11
*232 FILLER_11_111
*233 FILLER_11_113
*234 FILLER_11_125
*235 FILLER_11_137
*236 FILLER_11_149
*237 FILLER_11_161
*238 FILLER_11_167
*239 FILLER_11_169
*240 FILLER_11_181
*241 FILLER_11_189
*242 FILLER_11_23
*243 FILLER_11_3
*244 FILLER_11_35
*245 FILLER_11_47
*246 FILLER_11_55
*247 FILLER_11_57
*248 FILLER_11_69
*249 FILLER_11_81
*250 FILLER_11_93
*251 FILLER_12_109
*252 FILLER_12_121
*253 FILLER_12_133
*254 FILLER_12_139
*255 FILLER_12_141
*256 FILLER_12_15
*257 FILLER_12_153
*258 FILLER_12_165
*259 FILLER_12_177
*260 FILLER_12_189
*261 FILLER_12_27
*262 FILLER_12_29
*263 FILLER_12_3
*264 FILLER_12_41
*265 FILLER_12_53
*266 FILLER_12_65
*267 FILLER_12_77
*268 FILLER_12_83
*269 FILLER_12_85
*270 FILLER_12_97
*271 FILLER_13_105
*272 FILLER_13_111
*273 FILLER_13_113
*274 FILLER_13_125
*275 FILLER_13_137
*276 FILLER_13_149
*277 FILLER_13_15
*278 FILLER_13_161
*279 FILLER_13_167
*280 FILLER_13_169
*281 FILLER_13_175
*282 FILLER_13_178
*283 FILLER_13_186
*284 FILLER_13_27
*285 FILLER_13_3
*286 FILLER_13_39
*287 FILLER_13_51
*288 FILLER_13_55
*289 FILLER_13_57
*290 FILLER_13_69
*291 FILLER_13_81
*292 FILLER_13_93
*293 FILLER_14_109
*294 FILLER_14_121
*295 FILLER_14_133
*296 FILLER_14_139
*297 FILLER_14_141
*298 FILLER_14_15
*299 FILLER_14_153
*300 FILLER_14_165
*301 FILLER_14_177
*302 FILLER_14_189
*303 FILLER_14_27
*304 FILLER_14_29
*305 FILLER_14_3
*306 FILLER_14_41
*307 FILLER_14_53
*308 FILLER_14_65
*309 FILLER_14_77
*310 FILLER_14_83
*311 FILLER_14_85
*312 FILLER_14_97
*313 FILLER_15_105
*314 FILLER_15_111
*315 FILLER_15_113
*316 FILLER_15_125
*317 FILLER_15_137
*318 FILLER_15_149
*319 FILLER_15_15
*320 FILLER_15_161
*321 FILLER_15_167
*322 FILLER_15_169
*323 FILLER_15_181
*324 FILLER_15_189
*325 FILLER_15_27
*326 FILLER_15_3
*327 FILLER_15_39
*328 FILLER_15_51
*329 FILLER_15_55
*330 FILLER_15_57
*331 FILLER_15_69
*332 FILLER_15_81
*333 FILLER_15_93
*334 FILLER_16_109
*335 FILLER_16_121
*336 FILLER_16_133
*337 FILLER_16_139
*338 FILLER_16_141
*339 FILLER_16_15
*340 FILLER_16_153
*341 FILLER_16_165
*342 FILLER_16_177
*343 FILLER_16_189
*344 FILLER_16_27
*345 FILLER_16_29
*346 FILLER_16_3
*347 FILLER_16_41
*348 FILLER_16_53
*349 FILLER_16_65
*350 FILLER_16_77
*351 FILLER_16_83
*352 FILLER_16_85
*353 FILLER_16_97
*354 FILLER_17_105
*355 FILLER_17_111
*356 FILLER_17_113
*357 FILLER_17_125
*358 FILLER_17_137
*359 FILLER_17_149
*360 FILLER_17_15
*361 FILLER_17_161
*362 FILLER_17_167
*363 FILLER_17_169
*364 FILLER_17_181
*365 FILLER_17_189
*366 FILLER_17_27
*367 FILLER_17_3
*368 FILLER_17_39
*369 FILLER_17_51
*370 FILLER_17_55
*371 FILLER_17_57
*372 FILLER_17_69
*373 FILLER_17_81
*374 FILLER_17_93
*375 FILLER_18_109
*376 FILLER_18_121
*377 FILLER_18_133
*378 FILLER_18_139
*379 FILLER_18_141
*380 FILLER_18_15
*381 FILLER_18_153
*382 FILLER_18_165
*383 FILLER_18_177
*384 FILLER_18_189
*385 FILLER_18_27
*386 FILLER_18_29
*387 FILLER_18_3
*388 FILLER_18_41
*389 FILLER_18_53
*390 FILLER_18_65
*391 FILLER_18_77
*392 FILLER_18_83
*393 FILLER_18_85
*394 FILLER_18_97
*395 FILLER_19_105
*396 FILLER_19_111
*397 FILLER_19_113
*398 FILLER_19_125
*399 FILLER_19_137
*400 FILLER_19_149
*401 FILLER_19_15
*402 FILLER_19_161
*403 FILLER_19_167
*404 FILLER_19_169
*405 FILLER_19_181
*406 FILLER_19_189
*407 FILLER_19_27
*408 FILLER_19_3
*409 FILLER_19_39
*410 FILLER_19_51
*411 FILLER_19_55
*412 FILLER_19_57
*413 FILLER_19_69
*414 FILLER_19_81
*415 FILLER_19_93
*416 FILLER_1_105
*417 FILLER_1_111
*418 FILLER_1_113
*419 FILLER_1_125
*420 FILLER_1_13
*421 FILLER_1_137
*422 FILLER_1_149
*423 FILLER_1_161
*424 FILLER_1_167
*425 FILLER_1_169
*426 FILLER_1_181
*427 FILLER_1_189
*428 FILLER_1_25
*429 FILLER_1_37
*430 FILLER_1_49
*431 FILLER_1_55
*432 FILLER_1_57
*433 FILLER_1_69
*434 FILLER_1_7
*435 FILLER_1_81
*436 FILLER_1_93
*437 FILLER_20_109
*438 FILLER_20_121
*439 FILLER_20_133
*440 FILLER_20_139
*441 FILLER_20_141
*442 FILLER_20_153
*443 FILLER_20_165
*444 FILLER_20_17
*445 FILLER_20_177
*446 FILLER_20_189
*447 FILLER_20_25
*448 FILLER_20_29
*449 FILLER_20_41
*450 FILLER_20_5
*451 FILLER_20_53
*452 FILLER_20_65
*453 FILLER_20_77
*454 FILLER_20_83
*455 FILLER_20_85
*456 FILLER_20_97
*457 FILLER_21_105
*458 FILLER_21_111
*459 FILLER_21_113
*460 FILLER_21_125
*461 FILLER_21_13
*462 FILLER_21_137
*463 FILLER_21_149
*464 FILLER_21_161
*465 FILLER_21_167
*466 FILLER_21_169
*467 FILLER_21_181
*468 FILLER_21_189
*469 FILLER_21_25
*470 FILLER_21_37
*471 FILLER_21_49
*472 FILLER_21_55
*473 FILLER_21_57
*474 FILLER_21_69
*475 FILLER_21_81
*476 FILLER_21_93
*477 FILLER_22_109
*478 FILLER_22_121
*479 FILLER_22_133
*480 FILLER_22_139
*481 FILLER_22_141
*482 FILLER_22_15
*483 FILLER_22_153
*484 FILLER_22_165
*485 FILLER_22_177
*486 FILLER_22_189
*487 FILLER_22_27
*488 FILLER_22_29
*489 FILLER_22_3
*490 FILLER_22_41
*491 FILLER_22_53
*492 FILLER_22_65
*493 FILLER_22_77
*494 FILLER_22_83
*495 FILLER_22_85
*496 FILLER_22_97
*497 FILLER_23_105
*498 FILLER_23_111
*499 FILLER_23_113
*500 FILLER_23_125
*501 FILLER_23_137
*502 FILLER_23_149
*503 FILLER_23_15
*504 FILLER_23_161
*505 FILLER_23_167
*506 FILLER_23_169
*507 FILLER_23_181
*508 FILLER_23_189
*509 FILLER_23_27
*510 FILLER_23_3
*511 FILLER_23_39
*512 FILLER_23_51
*513 FILLER_23_55
*514 FILLER_23_57
*515 FILLER_23_69
*516 FILLER_23_81
*517 FILLER_23_93
*518 FILLER_24_109
*519 FILLER_24_121
*520 FILLER_24_133
*521 FILLER_24_139
*522 FILLER_24_141
*523 FILLER_24_15
*524 FILLER_24_153
*525 FILLER_24_165
*526 FILLER_24_177
*527 FILLER_24_183
*528 FILLER_24_186
*529 FILLER_24_27
*530 FILLER_24_29
*531 FILLER_24_3
*532 FILLER_24_41
*533 FILLER_24_53
*534 FILLER_24_65
*535 FILLER_24_77
*536 FILLER_24_83
*537 FILLER_24_85
*538 FILLER_24_97
*539 FILLER_25_105
*540 FILLER_25_111
*541 FILLER_25_113
*542 FILLER_25_125
*543 FILLER_25_137
*544 FILLER_25_149
*545 FILLER_25_15
*546 FILLER_25_161
*547 FILLER_25_167
*548 FILLER_25_169
*549 FILLER_25_175
*550 FILLER_25_186
*551 FILLER_25_27
*552 FILLER_25_3
*553 FILLER_25_39
*554 FILLER_25_51
*555 FILLER_25_55
*556 FILLER_25_57
*557 FILLER_25_69
*558 FILLER_25_81
*559 FILLER_25_93
*560 FILLER_26_109
*561 FILLER_26_121
*562 FILLER_26_133
*563 FILLER_26_139
*564 FILLER_26_141
*565 FILLER_26_15
*566 FILLER_26_153
*567 FILLER_26_165
*568 FILLER_26_177
*569 FILLER_26_189
*570 FILLER_26_27
*571 FILLER_26_29
*572 FILLER_26_3
*573 FILLER_26_41
*574 FILLER_26_53
*575 FILLER_26_65
*576 FILLER_26_77
*577 FILLER_26_83
*578 FILLER_26_85
*579 FILLER_26_97
*580 FILLER_27_105
*581 FILLER_27_111
*582 FILLER_27_113
*583 FILLER_27_125
*584 FILLER_27_137
*585 FILLER_27_149
*586 FILLER_27_15
*587 FILLER_27_161
*588 FILLER_27_167
*589 FILLER_27_169
*590 FILLER_27_181
*591 FILLER_27_189
*592 FILLER_27_27
*593 FILLER_27_3
*594 FILLER_27_39
*595 FILLER_27_51
*596 FILLER_27_55
*597 FILLER_27_57
*598 FILLER_27_69
*599 FILLER_27_81
*600 FILLER_27_93
*601 FILLER_28_109
*602 FILLER_28_113
*603 FILLER_28_125
*604 FILLER_28_137
*605 FILLER_28_141
*606 FILLER_28_15
*607 FILLER_28_153
*608 FILLER_28_165
*609 FILLER_28_177
*610 FILLER_28_189
*611 FILLER_28_27
*612 FILLER_28_29
*613 FILLER_28_3
*614 FILLER_28_41
*615 FILLER_28_53
*616 FILLER_28_65
*617 FILLER_28_77
*618 FILLER_28_83
*619 FILLER_28_85
*620 FILLER_28_97
*621 FILLER_29_101
*622 FILLER_29_108
*623 FILLER_29_118
*624 FILLER_29_130
*625 FILLER_29_142
*626 FILLER_29_15
*627 FILLER_29_154
*628 FILLER_29_166
*629 FILLER_29_169
*630 FILLER_29_181
*631 FILLER_29_189
*632 FILLER_29_27
*633 FILLER_29_3
*634 FILLER_29_39
*635 FILLER_29_51
*636 FILLER_29_55
*637 FILLER_29_57
*638 FILLER_29_69
*639 FILLER_29_81
*640 FILLER_29_93
*641 FILLER_2_109
*642 FILLER_2_121
*643 FILLER_2_133
*644 FILLER_2_139
*645 FILLER_2_141
*646 FILLER_2_15
*647 FILLER_2_153
*648 FILLER_2_165
*649 FILLER_2_177
*650 FILLER_2_181
*651 FILLER_2_186
*652 FILLER_2_27
*653 FILLER_2_29
*654 FILLER_2_3
*655 FILLER_2_41
*656 FILLER_2_53
*657 FILLER_2_65
*658 FILLER_2_77
*659 FILLER_2_83
*660 FILLER_2_85
*661 FILLER_2_97
*662 FILLER_30_109
*663 FILLER_30_121
*664 FILLER_30_133
*665 FILLER_30_139
*666 FILLER_30_141
*667 FILLER_30_15
*668 FILLER_30_153
*669 FILLER_30_165
*670 FILLER_30_177
*671 FILLER_30_189
*672 FILLER_30_27
*673 FILLER_30_29
*674 FILLER_30_3
*675 FILLER_30_41
*676 FILLER_30_53
*677 FILLER_30_65
*678 FILLER_30_77
*679 FILLER_30_83
*680 FILLER_30_85
*681 FILLER_30_97
*682 FILLER_31_105
*683 FILLER_31_111
*684 FILLER_31_113
*685 FILLER_31_125
*686 FILLER_31_137
*687 FILLER_31_147
*688 FILLER_31_164
*689 FILLER_31_169
*690 FILLER_31_17
*691 FILLER_31_181
*692 FILLER_31_189
*693 FILLER_31_29
*694 FILLER_31_41
*695 FILLER_31_5
*696 FILLER_31_53
*697 FILLER_31_57
*698 FILLER_31_69
*699 FILLER_31_81
*700 FILLER_31_93
*701 FILLER_32_109
*702 FILLER_32_121
*703 FILLER_32_13
*704 FILLER_32_133
*705 FILLER_32_139
*706 FILLER_32_141
*707 FILLER_32_153
*708 FILLER_32_165
*709 FILLER_32_177
*710 FILLER_32_189
*711 FILLER_32_25
*712 FILLER_32_29
*713 FILLER_32_41
*714 FILLER_32_53
*715 FILLER_32_65
*716 FILLER_32_77
*717 FILLER_32_83
*718 FILLER_32_85
*719 FILLER_32_97
*720 FILLER_33_105
*721 FILLER_33_111
*722 FILLER_33_113
*723 FILLER_33_125
*724 FILLER_33_131
*725 FILLER_33_135
*726 FILLER_33_147
*727 FILLER_33_15
*728 FILLER_33_159
*729 FILLER_33_167
*730 FILLER_33_169
*731 FILLER_33_181
*732 FILLER_33_189
*733 FILLER_33_27
*734 FILLER_33_3
*735 FILLER_33_39
*736 FILLER_33_51
*737 FILLER_33_55
*738 FILLER_33_57
*739 FILLER_33_69
*740 FILLER_33_81
*741 FILLER_33_93
*742 FILLER_34_109
*743 FILLER_34_121
*744 FILLER_34_133
*745 FILLER_34_139
*746 FILLER_34_141
*747 FILLER_34_15
*748 FILLER_34_153
*749 FILLER_34_165
*750 FILLER_34_177
*751 FILLER_34_189
*752 FILLER_34_27
*753 FILLER_34_29
*754 FILLER_34_3
*755 FILLER_34_41
*756 FILLER_34_53
*757 FILLER_34_65
*758 FILLER_34_77
*759 FILLER_34_83
*760 FILLER_34_85
*761 FILLER_34_97
*762 FILLER_35_105
*763 FILLER_35_111
*764 FILLER_35_113
*765 FILLER_35_125
*766 FILLER_35_137
*767 FILLER_35_149
*768 FILLER_35_15
*769 FILLER_35_161
*770 FILLER_35_167
*771 FILLER_35_169
*772 FILLER_35_181
*773 FILLER_35_189
*774 FILLER_35_27
*775 FILLER_35_3
*776 FILLER_35_39
*777 FILLER_35_51
*778 FILLER_35_55
*779 FILLER_35_57
*780 FILLER_35_69
*781 FILLER_35_81
*782 FILLER_35_93
*783 FILLER_36_109
*784 FILLER_36_121
*785 FILLER_36_127
*786 FILLER_36_136
*787 FILLER_36_143
*788 FILLER_36_15
*789 FILLER_36_155
*790 FILLER_36_167
*791 FILLER_36_175
*792 FILLER_36_179
*793 FILLER_36_186
*794 FILLER_36_27
*795 FILLER_36_29
*796 FILLER_36_3
*797 FILLER_36_41
*798 FILLER_36_53
*799 FILLER_36_65
*800 FILLER_36_77
*801 FILLER_36_83
*802 FILLER_36_85
*803 FILLER_36_97
*804 FILLER_37_105
*805 FILLER_37_111
*806 FILLER_37_113
*807 FILLER_37_125
*808 FILLER_37_137
*809 FILLER_37_149
*810 FILLER_37_15
*811 FILLER_37_161
*812 FILLER_37_167
*813 FILLER_37_169
*814 FILLER_37_181
*815 FILLER_37_189
*816 FILLER_37_27
*817 FILLER_37_3
*818 FILLER_37_39
*819 FILLER_37_51
*820 FILLER_37_55
*821 FILLER_37_57
*822 FILLER_37_69
*823 FILLER_37_81
*824 FILLER_37_93
*825 FILLER_38_109
*826 FILLER_38_121
*827 FILLER_38_133
*828 FILLER_38_139
*829 FILLER_38_141
*830 FILLER_38_15
*831 FILLER_38_153
*832 FILLER_38_165
*833 FILLER_38_177
*834 FILLER_38_189
*835 FILLER_38_27
*836 FILLER_38_29
*837 FILLER_38_3
*838 FILLER_38_41
*839 FILLER_38_53
*840 FILLER_38_65
*841 FILLER_38_77
*842 FILLER_38_83
*843 FILLER_38_85
*844 FILLER_38_97
*845 FILLER_39_105
*846 FILLER_39_111
*847 FILLER_39_113
*848 FILLER_39_125
*849 FILLER_39_137
*850 FILLER_39_149
*851 FILLER_39_15
*852 FILLER_39_161
*853 FILLER_39_167
*854 FILLER_39_169
*855 FILLER_39_181
*856 FILLER_39_189
*857 FILLER_39_27
*858 FILLER_39_3
*859 FILLER_39_39
*860 FILLER_39_51
*861 FILLER_39_55
*862 FILLER_39_57
*863 FILLER_39_69
*864 FILLER_39_81
*865 FILLER_39_93
*866 FILLER_3_105
*867 FILLER_3_111
*868 FILLER_3_113
*869 FILLER_3_125
*870 FILLER_3_137
*871 FILLER_3_149
*872 FILLER_3_15
*873 FILLER_3_161
*874 FILLER_3_167
*875 FILLER_3_169
*876 FILLER_3_181
*877 FILLER_3_189
*878 FILLER_3_27
*879 FILLER_3_3
*880 FILLER_3_39
*881 FILLER_3_51
*882 FILLER_3_55
*883 FILLER_3_57
*884 FILLER_3_69
*885 FILLER_3_81
*886 FILLER_3_93
*887 FILLER_40_116
*888 FILLER_40_127
*889 FILLER_40_133
*890 FILLER_40_139
*891 FILLER_40_141
*892 FILLER_40_15
*893 FILLER_40_153
*894 FILLER_40_165
*895 FILLER_40_177
*896 FILLER_40_189
*897 FILLER_40_27
*898 FILLER_40_29
*899 FILLER_40_3
*900 FILLER_40_41
*901 FILLER_40_53
*902 FILLER_40_65
*903 FILLER_40_77
*904 FILLER_40_83
*905 FILLER_40_85
*906 FILLER_40_97
*907 FILLER_41_105
*908 FILLER_41_111
*909 FILLER_41_113
*910 FILLER_41_130
*911 FILLER_41_137
*912 FILLER_41_149
*913 FILLER_41_15
*914 FILLER_41_161
*915 FILLER_41_167
*916 FILLER_41_169
*917 FILLER_41_181
*918 FILLER_41_189
*919 FILLER_41_27
*920 FILLER_41_3
*921 FILLER_41_39
*922 FILLER_41_51
*923 FILLER_41_55
*924 FILLER_41_57
*925 FILLER_41_69
*926 FILLER_41_81
*927 FILLER_41_93
*928 FILLER_42_109
*929 FILLER_42_121
*930 FILLER_42_129
*931 FILLER_42_132
*932 FILLER_42_141
*933 FILLER_42_153
*934 FILLER_42_165
*935 FILLER_42_177
*936 FILLER_42_189
*937 FILLER_42_19
*938 FILLER_42_27
*939 FILLER_42_29
*940 FILLER_42_41
*941 FILLER_42_53
*942 FILLER_42_65
*943 FILLER_42_7
*944 FILLER_42_77
*945 FILLER_42_83
*946 FILLER_42_85
*947 FILLER_42_97
*948 FILLER_43_105
*949 FILLER_43_111
*950 FILLER_43_113
*951 FILLER_43_125
*952 FILLER_43_145
*953 FILLER_43_15
*954 FILLER_43_157
*955 FILLER_43_165
*956 FILLER_43_169
*957 FILLER_43_181
*958 FILLER_43_189
*959 FILLER_43_27
*960 FILLER_43_3
*961 FILLER_43_39
*962 FILLER_43_51
*963 FILLER_43_55
*964 FILLER_43_57
*965 FILLER_43_69
*966 FILLER_43_81
*967 FILLER_43_93
*968 FILLER_44_109
*969 FILLER_44_121
*970 FILLER_44_133
*971 FILLER_44_139
*972 FILLER_44_141
*973 FILLER_44_15
*974 FILLER_44_153
*975 FILLER_44_165
*976 FILLER_44_177
*977 FILLER_44_189
*978 FILLER_44_27
*979 FILLER_44_29
*980 FILLER_44_3
*981 FILLER_44_41
*982 FILLER_44_53
*983 FILLER_44_65
*984 FILLER_44_77
*985 FILLER_44_83
*986 FILLER_44_85
*987 FILLER_44_97
*988 FILLER_45_105
*989 FILLER_45_111
*990 FILLER_45_113
*991 FILLER_45_125
*992 FILLER_45_137
*993 FILLER_45_149
*994 FILLER_45_15
*995 FILLER_45_161
*996 FILLER_45_167
*997 FILLER_45_169
*998 FILLER_45_181
*999 FILLER_45_189
*1000 FILLER_45_27
*1001 FILLER_45_3
*1002 FILLER_45_39
*1003 FILLER_45_51
*1004 FILLER_45_55
*1005 FILLER_45_57
*1006 FILLER_45_69
*1007 FILLER_45_81
*1008 FILLER_45_93
*1009 FILLER_46_109
*1010 FILLER_46_121
*1011 FILLER_46_133
*1012 FILLER_46_139
*1013 FILLER_46_141
*1014 FILLER_46_15
*1015 FILLER_46_153
*1016 FILLER_46_165
*1017 FILLER_46_177
*1018 FILLER_46_189
*1019 FILLER_46_27
*1020 FILLER_46_29
*1021 FILLER_46_3
*1022 FILLER_46_41
*1023 FILLER_46_53
*1024 FILLER_46_65
*1025 FILLER_46_77
*1026 FILLER_46_83
*1027 FILLER_46_85
*1028 FILLER_46_97
*1029 FILLER_47_105
*1030 FILLER_47_111
*1031 FILLER_47_113
*1032 FILLER_47_125
*1033 FILLER_47_137
*1034 FILLER_47_149
*1035 FILLER_47_15
*1036 FILLER_47_161
*1037 FILLER_47_167
*1038 FILLER_47_169
*1039 FILLER_47_181
*1040 FILLER_47_189
*1041 FILLER_47_27
*1042 FILLER_47_3
*1043 FILLER_47_39
*1044 FILLER_47_51
*1045 FILLER_47_55
*1046 FILLER_47_57
*1047 FILLER_47_69
*1048 FILLER_47_81
*1049 FILLER_47_93
*1050 FILLER_48_109
*1051 FILLER_48_121
*1052 FILLER_48_133
*1053 FILLER_48_139
*1054 FILLER_48_141
*1055 FILLER_48_15
*1056 FILLER_48_153
*1057 FILLER_48_165
*1058 FILLER_48_179
*1059 FILLER_48_186
*1060 FILLER_48_27
*1061 FILLER_48_29
*1062 FILLER_48_3
*1063 FILLER_48_41
*1064 FILLER_48_53
*1065 FILLER_48_65
*1066 FILLER_48_77
*1067 FILLER_48_83
*1068 FILLER_48_85
*1069 FILLER_48_97
*1070 FILLER_49_105
*1071 FILLER_49_111
*1072 FILLER_49_113
*1073 FILLER_49_125
*1074 FILLER_49_137
*1075 FILLER_49_149
*1076 FILLER_49_15
*1077 FILLER_49_161
*1078 FILLER_49_167
*1079 FILLER_49_169
*1080 FILLER_49_181
*1081 FILLER_49_189
*1082 FILLER_49_27
*1083 FILLER_49_3
*1084 FILLER_49_39
*1085 FILLER_49_51
*1086 FILLER_49_55
*1087 FILLER_49_57
*1088 FILLER_49_69
*1089 FILLER_49_81
*1090 FILLER_49_93
*1091 FILLER_4_109
*1092 FILLER_4_121
*1093 FILLER_4_133
*1094 FILLER_4_139
*1095 FILLER_4_141
*1096 FILLER_4_15
*1097 FILLER_4_153
*1098 FILLER_4_165
*1099 FILLER_4_177
*1100 FILLER_4_189
*1101 FILLER_4_27
*1102 FILLER_4_29
*1103 FILLER_4_3
*1104 FILLER_4_41
*1105 FILLER_4_53
*1106 FILLER_4_65
*1107 FILLER_4_77
*1108 FILLER_4_83
*1109 FILLER_4_85
*1110 FILLER_4_97
*1111 FILLER_50_109
*1112 FILLER_50_121
*1113 FILLER_50_133
*1114 FILLER_50_139
*1115 FILLER_50_141
*1116 FILLER_50_15
*1117 FILLER_50_153
*1118 FILLER_50_159
*1119 FILLER_50_163
*1120 FILLER_50_175
*1121 FILLER_50_186
*1122 FILLER_50_27
*1123 FILLER_50_29
*1124 FILLER_50_3
*1125 FILLER_50_41
*1126 FILLER_50_53
*1127 FILLER_50_65
*1128 FILLER_50_77
*1129 FILLER_50_83
*1130 FILLER_50_85
*1131 FILLER_50_97
*1132 FILLER_51_105
*1133 FILLER_51_111
*1134 FILLER_51_113
*1135 FILLER_51_125
*1136 FILLER_51_137
*1137 FILLER_51_149
*1138 FILLER_51_157
*1139 FILLER_51_164
*1140 FILLER_51_17
*1141 FILLER_51_172
*1142 FILLER_51_179
*1143 FILLER_51_186
*1144 FILLER_51_29
*1145 FILLER_51_41
*1146 FILLER_51_5
*1147 FILLER_51_53
*1148 FILLER_51_57
*1149 FILLER_51_69
*1150 FILLER_51_81
*1151 FILLER_51_93
*1152 FILLER_52_109
*1153 FILLER_52_121
*1154 FILLER_52_13
*1155 FILLER_52_133
*1156 FILLER_52_139
*1157 FILLER_52_141
*1158 FILLER_52_153
*1159 FILLER_52_159
*1160 FILLER_52_163
*1161 FILLER_52_172
*1162 FILLER_52_181
*1163 FILLER_52_189
*1164 FILLER_52_25
*1165 FILLER_52_29
*1166 FILLER_52_41
*1167 FILLER_52_53
*1168 FILLER_52_65
*1169 FILLER_52_77
*1170 FILLER_52_83
*1171 FILLER_52_85
*1172 FILLER_52_97
*1173 FILLER_53_105
*1174 FILLER_53_111
*1175 FILLER_53_113
*1176 FILLER_53_125
*1177 FILLER_53_137
*1178 FILLER_53_149
*1179 FILLER_53_15
*1180 FILLER_53_158
*1181 FILLER_53_164
*1182 FILLER_53_175
*1183 FILLER_53_184
*1184 FILLER_53_27
*1185 FILLER_53_3
*1186 FILLER_53_39
*1187 FILLER_53_51
*1188 FILLER_53_55
*1189 FILLER_53_57
*1190 FILLER_53_69
*1191 FILLER_53_81
*1192 FILLER_53_93
*1193 FILLER_54_109
*1194 FILLER_54_121
*1195 FILLER_54_133
*1196 FILLER_54_139
*1197 FILLER_54_143
*1198 FILLER_54_147
*1199 FILLER_54_15
*1200 FILLER_54_170
*1201 FILLER_54_181
*1202 FILLER_54_189
*1203 FILLER_54_27
*1204 FILLER_54_29
*1205 FILLER_54_3
*1206 FILLER_54_41
*1207 FILLER_54_53
*1208 FILLER_54_65
*1209 FILLER_54_77
*1210 FILLER_54_83
*1211 FILLER_54_85
*1212 FILLER_54_97
*1213 FILLER_55_105
*1214 FILLER_55_111
*1215 FILLER_55_113
*1216 FILLER_55_125
*1217 FILLER_55_133
*1218 FILLER_55_137
*1219 FILLER_55_144
*1220 FILLER_55_15
*1221 FILLER_55_154
*1222 FILLER_55_164
*1223 FILLER_55_178
*1224 FILLER_55_185
*1225 FILLER_55_189
*1226 FILLER_55_27
*1227 FILLER_55_3
*1228 FILLER_55_39
*1229 FILLER_55_51
*1230 FILLER_55_55
*1231 FILLER_55_57
*1232 FILLER_55_69
*1233 FILLER_55_81
*1234 FILLER_55_93
*1235 FILLER_56_109
*1236 FILLER_56_121
*1237 FILLER_56_127
*1238 FILLER_56_130
*1239 FILLER_56_136
*1240 FILLER_56_141
*1241 FILLER_56_147
*1242 FILLER_56_15
*1243 FILLER_56_151
*1244 FILLER_56_159
*1245 FILLER_56_184
*1246 FILLER_56_27
*1247 FILLER_56_29
*1248 FILLER_56_3
*1249 FILLER_56_41
*1250 FILLER_56_53
*1251 FILLER_56_65
*1252 FILLER_56_77
*1253 FILLER_56_83
*1254 FILLER_56_85
*1255 FILLER_56_97
*1256 FILLER_57_105
*1257 FILLER_57_111
*1258 FILLER_57_113
*1259 FILLER_57_130
*1260 FILLER_57_139
*1261 FILLER_57_148
*1262 FILLER_57_15
*1263 FILLER_57_164
*1264 FILLER_57_186
*1265 FILLER_57_27
*1266 FILLER_57_3
*1267 FILLER_57_39
*1268 FILLER_57_51
*1269 FILLER_57_55
*1270 FILLER_57_57
*1271 FILLER_57_69
*1272 FILLER_57_81
*1273 FILLER_57_93
*1274 FILLER_58_109
*1275 FILLER_58_121
*1276 FILLER_58_127
*1277 FILLER_58_136
*1278 FILLER_58_141
*1279 FILLER_58_15
*1280 FILLER_58_150
*1281 FILLER_58_161
*1282 FILLER_58_178
*1283 FILLER_58_186
*1284 FILLER_58_27
*1285 FILLER_58_29
*1286 FILLER_58_3
*1287 FILLER_58_41
*1288 FILLER_58_53
*1289 FILLER_58_65
*1290 FILLER_58_77
*1291 FILLER_58_83
*1292 FILLER_58_85
*1293 FILLER_58_97
*1294 FILLER_59_105
*1295 FILLER_59_111
*1296 FILLER_59_113
*1297 FILLER_59_125
*1298 FILLER_59_133
*1299 FILLER_59_137
*1300 FILLER_59_144
*1301 FILLER_59_15
*1302 FILLER_59_153
*1303 FILLER_59_164
*1304 FILLER_59_173
*1305 FILLER_59_185
*1306 FILLER_59_189
*1307 FILLER_59_27
*1308 FILLER_59_3
*1309 FILLER_59_39
*1310 FILLER_59_51
*1311 FILLER_59_55
*1312 FILLER_59_57
*1313 FILLER_59_69
*1314 FILLER_59_81
*1315 FILLER_59_93
*1316 FILLER_5_105
*1317 FILLER_5_111
*1318 FILLER_5_113
*1319 FILLER_5_125
*1320 FILLER_5_137
*1321 FILLER_5_149
*1322 FILLER_5_15
*1323 FILLER_5_161
*1324 FILLER_5_167
*1325 FILLER_5_169
*1326 FILLER_5_181
*1327 FILLER_5_189
*1328 FILLER_5_27
*1329 FILLER_5_3
*1330 FILLER_5_39
*1331 FILLER_5_51
*1332 FILLER_5_55
*1333 FILLER_5_57
*1334 FILLER_5_69
*1335 FILLER_5_81
*1336 FILLER_5_93
*1337 FILLER_60_109
*1338 FILLER_60_121
*1339 FILLER_60_133
*1340 FILLER_60_139
*1341 FILLER_60_141
*1342 FILLER_60_15
*1343 FILLER_60_157
*1344 FILLER_60_183
*1345 FILLER_60_189
*1346 FILLER_60_27
*1347 FILLER_60_29
*1348 FILLER_60_3
*1349 FILLER_60_41
*1350 FILLER_60_53
*1351 FILLER_60_65
*1352 FILLER_60_77
*1353 FILLER_60_83
*1354 FILLER_60_85
*1355 FILLER_60_97
*1356 FILLER_61_105
*1357 FILLER_61_111
*1358 FILLER_61_113
*1359 FILLER_61_125
*1360 FILLER_61_137
*1361 FILLER_61_149
*1362 FILLER_61_153
*1363 FILLER_61_157
*1364 FILLER_61_164
*1365 FILLER_61_172
*1366 FILLER_61_183
*1367 FILLER_61_189
*1368 FILLER_61_19
*1369 FILLER_61_3
*1370 FILLER_61_31
*1371 FILLER_61_43
*1372 FILLER_61_55
*1373 FILLER_61_57
*1374 FILLER_61_69
*1375 FILLER_61_7
*1376 FILLER_61_81
*1377 FILLER_61_93
*1378 FILLER_62_109
*1379 FILLER_62_11
*1380 FILLER_62_121
*1381 FILLER_62_133
*1382 FILLER_62_139
*1383 FILLER_62_141
*1384 FILLER_62_153
*1385 FILLER_62_159
*1386 FILLER_62_170
*1387 FILLER_62_178
*1388 FILLER_62_186
*1389 FILLER_62_23
*1390 FILLER_62_27
*1391 FILLER_62_29
*1392 FILLER_62_3
*1393 FILLER_62_41
*1394 FILLER_62_53
*1395 FILLER_62_65
*1396 FILLER_62_77
*1397 FILLER_62_83
*1398 FILLER_62_85
*1399 FILLER_62_97
*1400 FILLER_63_105
*1401 FILLER_63_111
*1402 FILLER_63_113
*1403 FILLER_63_125
*1404 FILLER_63_137
*1405 FILLER_63_149
*1406 FILLER_63_15
*1407 FILLER_63_161
*1408 FILLER_63_167
*1409 FILLER_63_169
*1410 FILLER_63_173
*1411 FILLER_63_177
*1412 FILLER_63_186
*1413 FILLER_63_27
*1414 FILLER_63_3
*1415 FILLER_63_39
*1416 FILLER_63_51
*1417 FILLER_63_55
*1418 FILLER_63_57
*1419 FILLER_63_69
*1420 FILLER_63_81
*1421 FILLER_63_93
*1422 FILLER_64_109
*1423 FILLER_64_121
*1424 FILLER_64_133
*1425 FILLER_64_139
*1426 FILLER_64_141
*1427 FILLER_64_15
*1428 FILLER_64_153
*1429 FILLER_64_165
*1430 FILLER_64_175
*1431 FILLER_64_186
*1432 FILLER_64_27
*1433 FILLER_64_29
*1434 FILLER_64_3
*1435 FILLER_64_41
*1436 FILLER_64_53
*1437 FILLER_64_65
*1438 FILLER_64_77
*1439 FILLER_64_83
*1440 FILLER_64_85
*1441 FILLER_64_97
*1442 FILLER_65_105
*1443 FILLER_65_111
*1444 FILLER_65_113
*1445 FILLER_65_125
*1446 FILLER_65_137
*1447 FILLER_65_149
*1448 FILLER_65_15
*1449 FILLER_65_161
*1450 FILLER_65_167
*1451 FILLER_65_169
*1452 FILLER_65_181
*1453 FILLER_65_189
*1454 FILLER_65_27
*1455 FILLER_65_3
*1456 FILLER_65_39
*1457 FILLER_65_51
*1458 FILLER_65_55
*1459 FILLER_65_57
*1460 FILLER_65_69
*1461 FILLER_65_81
*1462 FILLER_65_93
*1463 FILLER_66_109
*1464 FILLER_66_121
*1465 FILLER_66_133
*1466 FILLER_66_139
*1467 FILLER_66_141
*1468 FILLER_66_15
*1469 FILLER_66_153
*1470 FILLER_66_165
*1471 FILLER_66_177
*1472 FILLER_66_189
*1473 FILLER_66_27
*1474 FILLER_66_29
*1475 FILLER_66_3
*1476 FILLER_66_41
*1477 FILLER_66_53
*1478 FILLER_66_65
*1479 FILLER_66_77
*1480 FILLER_66_83
*1481 FILLER_66_85
*1482 FILLER_66_97
*1483 FILLER_67_105
*1484 FILLER_67_111
*1485 FILLER_67_113
*1486 FILLER_67_125
*1487 FILLER_67_137
*1488 FILLER_67_149
*1489 FILLER_67_15
*1490 FILLER_67_161
*1491 FILLER_67_167
*1492 FILLER_67_169
*1493 FILLER_67_181
*1494 FILLER_67_189
*1495 FILLER_67_27
*1496 FILLER_67_3
*1497 FILLER_67_39
*1498 FILLER_67_51
*1499 FILLER_67_55
*1500 FILLER_67_57
*1501 FILLER_67_69
*1502 FILLER_67_81
*1503 FILLER_67_93
*1504 FILLER_68_109
*1505 FILLER_68_121
*1506 FILLER_68_133
*1507 FILLER_68_139
*1508 FILLER_68_141
*1509 FILLER_68_15
*1510 FILLER_68_153
*1511 FILLER_68_165
*1512 FILLER_68_177
*1513 FILLER_68_189
*1514 FILLER_68_27
*1515 FILLER_68_29
*1516 FILLER_68_3
*1517 FILLER_68_41
*1518 FILLER_68_53
*1519 FILLER_68_65
*1520 FILLER_68_77
*1521 FILLER_68_83
*1522 FILLER_68_85
*1523 FILLER_68_97
*1524 FILLER_69_105
*1525 FILLER_69_111
*1526 FILLER_69_113
*1527 FILLER_69_125
*1528 FILLER_69_137
*1529 FILLER_69_149
*1530 FILLER_69_15
*1531 FILLER_69_161
*1532 FILLER_69_167
*1533 FILLER_69_169
*1534 FILLER_69_181
*1535 FILLER_69_189
*1536 FILLER_69_27
*1537 FILLER_69_3
*1538 FILLER_69_39
*1539 FILLER_69_51
*1540 FILLER_69_55
*1541 FILLER_69_57
*1542 FILLER_69_69
*1543 FILLER_69_81
*1544 FILLER_69_93
*1545 FILLER_6_109
*1546 FILLER_6_121
*1547 FILLER_6_133
*1548 FILLER_6_139
*1549 FILLER_6_141
*1550 FILLER_6_15
*1551 FILLER_6_153
*1552 FILLER_6_165
*1553 FILLER_6_177
*1554 FILLER_6_189
*1555 FILLER_6_27
*1556 FILLER_6_29
*1557 FILLER_6_3
*1558 FILLER_6_41
*1559 FILLER_6_53
*1560 FILLER_6_65
*1561 FILLER_6_77
*1562 FILLER_6_83
*1563 FILLER_6_85
*1564 FILLER_6_97
*1565 FILLER_70_109
*1566 FILLER_70_121
*1567 FILLER_70_133
*1568 FILLER_70_139
*1569 FILLER_70_141
*1570 FILLER_70_15
*1571 FILLER_70_153
*1572 FILLER_70_165
*1573 FILLER_70_177
*1574 FILLER_70_189
*1575 FILLER_70_27
*1576 FILLER_70_29
*1577 FILLER_70_3
*1578 FILLER_70_41
*1579 FILLER_70_53
*1580 FILLER_70_65
*1581 FILLER_70_77
*1582 FILLER_70_83
*1583 FILLER_70_85
*1584 FILLER_70_97
*1585 FILLER_71_105
*1586 FILLER_71_111
*1587 FILLER_71_113
*1588 FILLER_71_125
*1589 FILLER_71_137
*1590 FILLER_71_149
*1591 FILLER_71_15
*1592 FILLER_71_161
*1593 FILLER_71_167
*1594 FILLER_71_169
*1595 FILLER_71_179
*1596 FILLER_71_186
*1597 FILLER_71_27
*1598 FILLER_71_3
*1599 FILLER_71_39
*1600 FILLER_71_51
*1601 FILLER_71_55
*1602 FILLER_71_57
*1603 FILLER_71_69
*1604 FILLER_71_81
*1605 FILLER_71_93
*1606 FILLER_72_109
*1607 FILLER_72_121
*1608 FILLER_72_133
*1609 FILLER_72_139
*1610 FILLER_72_141
*1611 FILLER_72_15
*1612 FILLER_72_153
*1613 FILLER_72_165
*1614 FILLER_72_177
*1615 FILLER_72_189
*1616 FILLER_72_27
*1617 FILLER_72_29
*1618 FILLER_72_3
*1619 FILLER_72_41
*1620 FILLER_72_53
*1621 FILLER_72_65
*1622 FILLER_72_77
*1623 FILLER_72_83
*1624 FILLER_72_85
*1625 FILLER_72_97
*1626 FILLER_73_105
*1627 FILLER_73_111
*1628 FILLER_73_113
*1629 FILLER_73_125
*1630 FILLER_73_13
*1631 FILLER_73_137
*1632 FILLER_73_149
*1633 FILLER_73_161
*1634 FILLER_73_167
*1635 FILLER_73_169
*1636 FILLER_73_181
*1637 FILLER_73_189
*1638 FILLER_73_25
*1639 FILLER_73_37
*1640 FILLER_73_49
*1641 FILLER_73_55
*1642 FILLER_73_57