*SPEF "ieee 1481-1999"
*DESIGN "cordic"
*DATE "11:11:11 Fri 11 11, 1111"
*VENDOR "OpenRCX"
*PROGRAM "Parallel Extraction"
*VERSION "1.0"
*DESIGN_FLOW "NAME_SCOPE LOCAL" "PIN_CAP NONE"
*DIVIDER /
*DELIMITER :
*BUS_DELIMITER []
*T_UNIT 1 NS
*C_UNIT 1 PF
*R_UNIT 1 OHM
*L_UNIT 1 HENRY

*NAME_MAP
*1 A[0]
*2 A[1]
*3 A[2]
*4 A[3]
*5 A[4]
*6 A[5]
*7 A[6]
*8 A[7]
*9 A[8]
*10 A[9]
*11 B[0]
*12 B[1]
*13 B[2]
*14 B[3]
*15 B[4]
*16 B[5]
*17 B[6]
*18 B[7]
*19 B[8]
*20 B[9]
*21 Ci
*22 Co
*23 S[0]
*24 S[1]
*25 S[2]
*26 S[3]
*27 S[4]
*28 S[5]
*29 S[6]
*30 S[7]
*31 S[8]
*32 S[9]
*33 net44
*34 net54
*35 net55
*36 net56
*37 net57
*38 net58
*39 net59
*40 net60
*41 net61
*42 net62
*43 net63
*44 net45
*45 net33
*46 net34
*47 net35
*48 net36
*49 net37
*50 net38
*51 net39
*52 net40
*53 net41
*54 net42
*55 net46
*56 net64
*57 net43
*58 net47
*59 net48
*60 net49
*61 net50
*62 net51
*63 net52
*64 net53
*67 _000_
*68 _001_
*69 _002_
*70 _003_
*71 _004_
*72 _005_
*73 _006_
*74 _007_
*75 _008_
*76 _009_
*77 _010_
*78 _011_
*79 _012_
*80 _013_
*81 _014_
*82 _015_
*83 _016_
*84 _017_
*85 _018_
*86 _019_
*87 _020_
*88 _021_
*89 _022_
*90 _023_
*91 _024_
*92 _025_
*93 _026_
*94 _027_
*95 _028_
*96 _029_
*97 _030_
*98 _031_
*99 _032_
*100 _033_
*101 _034_
*102 _035_
*103 _036_
*104 _037_
*105 _038_
*106 _039_
*107 _040_
*108 _041_
*109 _042_
*110 _043_
*111 _044_
*112 _045_
*113 net1
*114 net10
*115 net11
*116 net12
*117 net13
*118 net14
*119 net15
*120 net16
*121 net17
*122 net18
*123 net19
*124 net2
*125 net20
*126 net21
*127 net22
*128 net23
*129 net24
*130 net25
*131 net26
*132 net27
*133 net28
*134 net29
*135 net3
*136 net30
*137 net31
*138 net32
*139 net4
*140 net5
*141 net6
*142 net7
*143 net8
*144 net9
*145 ANTENNA__047__A
*146 ANTENNA__048__B
*147 ANTENNA__049__B
*148 ANTENNA__051__A
*149 ANTENNA__052__A
*150 ANTENNA__054__A
*151 ANTENNA__054__B
*152 ANTENNA__055__A
*153 ANTENNA__055__B
*154 ANTENNA__060__A
*155 ANTENNA__060__B
*156 ANTENNA__061__A
*157 ANTENNA__061__B
*158 ANTENNA__064__A
*159 ANTENNA__064__B
*160 ANTENNA__065__A
*161 ANTENNA__065__B
*162 ANTENNA__067__B
*163 ANTENNA__068__A
*164 ANTENNA__069__A
*165 ANTENNA__073__A2
*166 ANTENNA__073__B1
*167 ANTENNA__074__A2
*168 ANTENNA__076__A
*169 ANTENNA_input10_A
*170 ANTENNA_input11_A
*171 ANTENNA_input12_A
*172 ANTENNA_input13_A
*173 ANTENNA_input14_A
*174 ANTENNA_input15_A
*175 ANTENNA_input16_A
*176 ANTENNA_input17_A
*177 ANTENNA_input18_A
*178 ANTENNA_input19_A
*179 ANTENNA_input1_A
*180 ANTENNA_input20_A
*181 ANTENNA_input21_A
*182 ANTENNA_input2_A
*183 ANTENNA_input3_A
*184 ANTENNA_input4_A
*185 ANTENNA_input5_A
*186 ANTENNA_input6_A
*187 ANTENNA_input7_A
*188 ANTENNA_input8_A
*189 ANTENNA_input9_A
*190 ANTENNA_output24_A
*191 ANTENNA_output27_A
*192 ANTENNA_output29_A
*193 FILLER_0_101
*194 FILLER_0_109
*195 FILLER_0_113
*196 FILLER_0_125
*197 FILLER_0_132
*198 FILLER_0_143
*199 FILLER_0_151
*200 FILLER_0_155
*201 FILLER_0_163
*202 FILLER_0_167
*203 FILLER_0_169
*204 FILLER_0_175
*205 FILLER_0_178
*206 FILLER_0_186
*207 FILLER_0_20
*208 FILLER_0_3
*209 FILLER_0_31
*210 FILLER_0_39
*211 FILLER_0_51
*212 FILLER_0_55
*213 FILLER_0_57
*214 FILLER_0_65
*215 FILLER_0_70
*216 FILLER_0_76
*217 FILLER_0_8
*218 FILLER_0_85
*219 FILLER_0_93
*220 FILLER_10_109
*221 FILLER_10_121
*222 FILLER_10_133
*223 FILLER_10_139
*224 FILLER_10_141
*225 FILLER_10_15
*226 FILLER_10_153
*227 FILLER_10_165
*228 FILLER_10_177
*229 FILLER_10_189
*230 FILLER_10_27
*231 FILLER_10_29
*232 FILLER_10_3
*233 FILLER_10_41
*234 FILLER_10_53
*235 FILLER_10_65
*236 FILLER_10_77
*237 FILLER_10_83
*238 FILLER_10_85
*239 FILLER_10_97
*240 FILLER_11_105
*241 FILLER_11_111
*242 FILLER_11_113
*243 FILLER_11_125
*244 FILLER_11_137
*245 FILLER_11_149
*246 FILLER_11_15
*247 FILLER_11_161
*248 FILLER_11_167
*249 FILLER_11_169
*250 FILLER_11_181
*251 FILLER_11_189
*252 FILLER_11_27
*253 FILLER_11_3
*254 FILLER_11_39
*255 FILLER_11_51
*256 FILLER_11_55
*257 FILLER_11_57
*258 FILLER_11_69
*259 FILLER_11_81
*260 FILLER_11_93
*261 FILLER_12_109
*262 FILLER_12_121
*263 FILLER_12_133
*264 FILLER_12_139
*265 FILLER_12_141
*266 FILLER_12_15
*267 FILLER_12_153
*268 FILLER_12_165
*269 FILLER_12_177
*270 FILLER_12_189
*271 FILLER_12_27
*272 FILLER_12_29
*273 FILLER_12_3
*274 FILLER_12_41
*275 FILLER_12_53
*276 FILLER_12_65
*277 FILLER_12_77
*278 FILLER_12_83
*279 FILLER_12_85
*280 FILLER_12_97
*281 FILLER_13_105
*282 FILLER_13_111
*283 FILLER_13_113
*284 FILLER_13_125
*285 FILLER_13_137
*286 FILLER_13_149
*287 FILLER_13_15
*288 FILLER_13_161
*289 FILLER_13_167
*290 FILLER_13_169
*291 FILLER_13_181
*292 FILLER_13_189
*293 FILLER_13_27
*294 FILLER_13_3
*295 FILLER_13_39
*296 FILLER_13_51
*297 FILLER_13_55
*298 FILLER_13_57
*299 FILLER_13_69
*300 FILLER_13_81
*301 FILLER_13_93
*302 FILLER_14_109
*303 FILLER_14_121
*304 FILLER_14_133
*305 FILLER_14_139
*306 FILLER_14_141
*307 FILLER_14_15
*308 FILLER_14_153
*309 FILLER_14_165
*310 FILLER_14_177
*311 FILLER_14_189
*312 FILLER_14_27
*313 FILLER_14_29
*314 FILLER_14_3
*315 FILLER_14_41
*316 FILLER_14_53
*317 FILLER_14_65
*318 FILLER_14_77
*319 FILLER_14_83
*320 FILLER_14_85
*321 FILLER_14_97
*322 FILLER_15_105
*323 FILLER_15_111
*324 FILLER_15_113
*325 FILLER_15_125
*326 FILLER_15_137
*327 FILLER_15_149
*328 FILLER_15_15
*329 FILLER_15_161
*330 FILLER_15_167
*331 FILLER_15_169
*332 FILLER_15_181
*333 FILLER_15_189
*334 FILLER_15_27
*335 FILLER_15_3
*336 FILLER_15_39
*337 FILLER_15_51
*338 FILLER_15_55
*339 FILLER_15_57
*340 FILLER_15_69
*341 FILLER_15_81
*342 FILLER_15_93
*343 FILLER_16_109
*344 FILLER_16_121
*345 FILLER_16_133
*346 FILLER_16_139
*347 FILLER_16_141
*348 FILLER_16_15
*349 FILLER_16_153
*350 FILLER_16_165
*351 FILLER_16_177
*352 FILLER_16_189
*353 FILLER_16_27
*354 FILLER_16_29
*355 FILLER_16_3
*356 FILLER_16_41
*357 FILLER_16_53
*358 FILLER_16_65
*359 FILLER_16_77
*360 FILLER_16_83
*361 FILLER_16_85
*362 FILLER_16_97
*363 FILLER_17_105
*364 FILLER_17_111
*365 FILLER_17_113
*366 FILLER_17_125
*367 FILLER_17_137
*368 FILLER_17_149
*369 FILLER_17_15
*370 FILLER_17_161
*371 FILLER_17_167
*372 FILLER_17_169
*373 FILLER_17_181
*374 FILLER_17_189
*375 FILLER_17_27
*376 FILLER_17_3
*377 FILLER_17_39
*378 FILLER_17_51
*379 FILLER_17_55
*380 FILLER_17_57
*381 FILLER_17_69
*382 FILLER_17_81
*383 FILLER_17_93
*384 FILLER_18_109
*385 FILLER_18_121
*386 FILLER_18_133
*387 FILLER_18_139
*388 FILLER_18_141
*389 FILLER_18_153
*390 FILLER_18_165
*391 FILLER_18_17
*392 FILLER_18_177
*393 FILLER_18_189
*394 FILLER_18_25
*395 FILLER_18_29
*396 FILLER_18_41
*397 FILLER_18_5
*398 FILLER_18_53
*399 FILLER_18_65
*400 FILLER_18_77
*401 FILLER_18_83
*402 FILLER_18_85
*403 FILLER_18_97
*404 FILLER_19_105
*405 FILLER_19_111
*406 FILLER_19_113
*407 FILLER_19_125
*408 FILLER_19_137
*409 FILLER_19_149
*410 FILLER_19_161
*411 FILLER_19_167
*412 FILLER_19_169
*413 FILLER_19_181
*414 FILLER_19_189
*415 FILLER_19_19
*416 FILLER_19_31
*417 FILLER_19_43
*418 FILLER_19_55
*419 FILLER_19_57
*420 FILLER_19_69
*421 FILLER_19_7
*422 FILLER_19_81
*423 FILLER_19_93
*424 FILLER_1_105
*425 FILLER_1_111
*426 FILLER_1_113
*427 FILLER_1_125
*428 FILLER_1_137
*429 FILLER_1_149
*430 FILLER_1_161
*431 FILLER_1_167
*432 FILLER_1_169
*433 FILLER_1_17
*434 FILLER_1_181
*435 FILLER_1_189
*436 FILLER_1_29
*437 FILLER_1_41
*438 FILLER_1_5
*439 FILLER_1_53
*440 FILLER_1_57
*441 FILLER_1_69
*442 FILLER_1_81
*443 FILLER_1_93
*444 FILLER_20_109
*445 FILLER_20_121
*446 FILLER_20_133
*447 FILLER_20_139
*448 FILLER_20_141
*449 FILLER_20_15
*450 FILLER_20_153
*451 FILLER_20_165
*452 FILLER_20_177
*453 FILLER_20_189
*454 FILLER_20_27
*455 FILLER_20_29
*456 FILLER_20_3
*457 FILLER_20_41
*458 FILLER_20_53
*459 FILLER_20_65
*460 FILLER_20_77
*461 FILLER_20_83
*462 FILLER_20_85
*463 FILLER_20_97
*464 FILLER_21_105
*465 FILLER_21_111
*466 FILLER_21_113
*467 FILLER_21_125
*468 FILLER_21_137
*469 FILLER_21_149
*470 FILLER_21_15
*471 FILLER_21_161
*472 FILLER_21_167
*473 FILLER_21_169
*474 FILLER_21_181
*475 FILLER_21_189
*476 FILLER_21_27
*477 FILLER_21_3
*478 FILLER_21_39
*479 FILLER_21_51
*480 FILLER_21_55
*481 FILLER_21_57
*482 FILLER_21_69
*483 FILLER_21_81
*484 FILLER_21_93
*485 FILLER_22_109
*486 FILLER_22_121
*487 FILLER_22_133
*488 FILLER_22_139
*489 FILLER_22_141
*490 FILLER_22_15
*491 FILLER_22_153
*492 FILLER_22_165
*493 FILLER_22_177
*494 FILLER_22_189
*495 FILLER_22_27
*496 FILLER_22_29
*497 FILLER_22_3
*498 FILLER_22_41
*499 FILLER_22_53
*500 FILLER_22_65
*501 FILLER_22_77
*502 FILLER_22_83
*503 FILLER_22_85
*504 FILLER_22_97
*505 FILLER_23_105
*506 FILLER_23_111
*507 FILLER_23_113
*508 FILLER_23_125
*509 FILLER_23_137
*510 FILLER_23_149
*511 FILLER_23_15
*512 FILLER_23_161
*513 FILLER_23_167
*514 FILLER_23_169
*515 FILLER_23_181
*516 FILLER_23_189
*517 FILLER_23_27
*518 FILLER_23_3
*519 FILLER_23_39
*520 FILLER_23_51
*521 FILLER_23_55
*522 FILLER_23_57
*523 FILLER_23_69
*524 FILLER_23_81
*525 FILLER_23_93
*526 FILLER_24_109
*527 FILLER_24_121
*528 FILLER_24_133
*529 FILLER_24_139
*530 FILLER_24_141
*531 FILLER_24_15
*532 FILLER_24_153
*533 FILLER_24_165
*534 FILLER_24_177
*535 FILLER_24_189
*536 FILLER_24_27
*537 FILLER_24_29
*538 FILLER_24_3
*539 FILLER_24_41
*540 FILLER_24_53
*541 FILLER_24_65
*542 FILLER_24_77
*543 FILLER_24_83
*544 FILLER_24_85
*545 FILLER_24_97
*546 FILLER_25_105
*547 FILLER_25_111
*548 FILLER_25_113
*549 FILLER_25_125
*550 FILLER_25_137
*551 FILLER_25_149
*552 FILLER_25_15
*553 FILLER_25_161
*554 FILLER_25_167
*555 FILLER_25_169
*556 FILLER_25_181
*557 FILLER_25_189
*558 FILLER_25_27
*559 FILLER_25_3
*560 FILLER_25_39
*561 FILLER_25_51
*562 FILLER_25_55
*563 FILLER_25_57
*564 FILLER_25_69
*565 FILLER_25_81
*566 FILLER_25_93
*567 FILLER_26_109
*568 FILLER_26_121
*569 FILLER_26_133
*570 FILLER_26_139
*571 FILLER_26_141
*572 FILLER_26_15
*573 FILLER_26_153
*574 FILLER_26_165
*575 FILLER_26_177
*576 FILLER_26_189
*577 FILLER_26_27
*578 FILLER_26_29
*579 FILLER_26_3
*580 FILLER_26_41
*581 FILLER_26_53
*582 FILLER_26_65
*583 FILLER_26_77
*584 FILLER_26_83
*585 FILLER_26_85
*586 FILLER_26_97
*587 FILLER_27_105
*588 FILLER_27_111
*589 FILLER_27_113
*590 FILLER_27_125
*591 FILLER_27_137
*592 FILLER_27_149
*593 FILLER_27_15
*594 FILLER_27_161
*595 FILLER_27_167
*596 FILLER_27_169
*597 FILLER_27_181
*598 FILLER_27_189
*599 FILLER_27_27
*600 FILLER_27_3
*601 FILLER_27_39
*602 FILLER_27_51
*603 FILLER_27_55
*604 FILLER_27_57
*605 FILLER_27_69
*606 FILLER_27_81
*607 FILLER_27_93
*608 FILLER_28_109
*609 FILLER_28_121
*610 FILLER_28_133
*611 FILLER_28_139
*612 FILLER_28_141
*613 FILLER_28_15
*614 FILLER_28_153
*615 FILLER_28_165
*616 FILLER_28_177
*617 FILLER_28_189
*618 FILLER_28_27
*619 FILLER_28_29
*620 FILLER_28_3
*621 FILLER_28_41
*622 FILLER_28_53
*623 FILLER_28_65
*624 FILLER_28_77
*625 FILLER_28_83
*626 FILLER_28_85
*627 FILLER_28_97
*628 FILLER_29_105
*629 FILLER_29_111
*630 FILLER_29_113
*631 FILLER_29_125
*632 FILLER_29_137
*633 FILLER_29_149
*634 FILLER_29_15
*635 FILLER_29_161
*636 FILLER_29_167
*637 FILLER_29_169
*638 FILLER_29_181
*639 FILLER_29_189
*640 FILLER_29_27
*641 FILLER_29_3
*642 FILLER_29_39
*643 FILLER_29_51
*644 FILLER_29_55
*645 FILLER_29_57
*646 FILLER_29_69
*647 FILLER_29_81
*648 FILLER_29_93
*649 FILLER_2_109
*650 FILLER_2_121
*651 FILLER_2_133
*652 FILLER_2_139
*653 FILLER_2_141
*654 FILLER_2_15
*655 FILLER_2_153
*656 FILLER_2_165
*657 FILLER_2_177
*658 FILLER_2_189
*659 FILLER_2_27
*660 FILLER_2_29
*661 FILLER_2_3
*662 FILLER_2_41
*663 FILLER_2_53
*664 FILLER_2_65
*665 FILLER_2_77
*666 FILLER_2_83
*667 FILLER_2_85
*668 FILLER_2_97
*669 FILLER_30_109
*670 FILLER_30_121
*671 FILLER_30_133
*672 FILLER_30_139
*673 FILLER_30_141
*674 FILLER_30_15
*675 FILLER_30_153
*676 FILLER_30_165
*677 FILLER_30_177
*678 FILLER_30_183
*679 FILLER_30_186
*680 FILLER_30_27
*681 FILLER_30_29
*682 FILLER_30_3
*683 FILLER_30_41
*684 FILLER_30_53
*685 FILLER_30_65
*686 FILLER_30_77
*687 FILLER_30_83
*688 FILLER_30_85
*689 FILLER_30_97
*690 FILLER_31_105
*691 FILLER_31_111
*692 FILLER_31_113
*693 FILLER_31_125
*694 FILLER_31_137
*695 FILLER_31_149
*696 FILLER_31_15
*697 FILLER_31_161
*698 FILLER_31_167
*699 FILLER_31_169
*700 FILLER_31_175
*701 FILLER_31_186
*702 FILLER_31_27
*703 FILLER_31_3
*704 FILLER_31_39
*705 FILLER_31_51
*706 FILLER_31_55
*707 FILLER_31_57
*708 FILLER_31_69
*709 FILLER_31_81
*710 FILLER_31_93
*711 FILLER_32_109
*712 FILLER_32_121
*713 FILLER_32_133
*714 FILLER_32_139
*715 FILLER_32_141
*716 FILLER_32_15
*717 FILLER_32_153
*718 FILLER_32_165
*719 FILLER_32_177
*720 FILLER_32_189
*721 FILLER_32_27
*722 FILLER_32_29
*723 FILLER_32_3
*724 FILLER_32_41
*725 FILLER_32_53
*726 FILLER_32_65
*727 FILLER_32_77
*728 FILLER_32_83
*729 FILLER_32_85
*730 FILLER_32_97
*731 FILLER_33_105
*732 FILLER_33_111
*733 FILLER_33_113
*734 FILLER_33_125
*735 FILLER_33_137
*736 FILLER_33_149
*737 FILLER_33_15
*738 FILLER_33_161
*739 FILLER_33_167
*740 FILLER_33_169
*741 FILLER_33_181
*742 FILLER_33_189
*743 FILLER_33_27
*744 FILLER_33_3
*745 FILLER_33_39
*746 FILLER_33_51
*747 FILLER_33_55
*748 FILLER_33_57
*749 FILLER_33_69
*750 FILLER_33_81
*751 FILLER_33_93
*752 FILLER_34_109
*753 FILLER_34_121
*754 FILLER_34_13
*755 FILLER_34_133
*756 FILLER_34_139
*757 FILLER_34_141
*758 FILLER_34_153
*759 FILLER_34_165
*760 FILLER_34_177
*761 FILLER_34_189
*762 FILLER_34_25
*763 FILLER_34_29
*764 FILLER_34_41
*765 FILLER_34_53
*766 FILLER_34_65
*767 FILLER_34_7
*768 FILLER_34_77
*769 FILLER_34_83
*770 FILLER_34_85
*771 FILLER_34_97
*772 FILLER_35_105
*773 FILLER_35_111
*774 FILLER_35_113
*775 FILLER_35_125
*776 FILLER_35_137
*777 FILLER_35_149
*778 FILLER_35_15
*779 FILLER_35_161
*780 FILLER_35_167
*781 FILLER_35_169
*782 FILLER_35_181
*783 FILLER_35_189
*784 FILLER_35_27
*785 FILLER_35_3
*786 FILLER_35_39
*787 FILLER_35_51
*788 FILLER_35_55
*789 FILLER_35_57
*790 FILLER_35_69
*791 FILLER_35_81
*792 FILLER_35_93
*793 FILLER_36_109
*794 FILLER_36_121
*795 FILLER_36_133
*796 FILLER_36_139
*797 FILLER_36_141
*798 FILLER_36_15
*799 FILLER_36_153
*800 FILLER_36_165
*801 FILLER_36_177
*802 FILLER_36_189
*803 FILLER_36_27
*804 FILLER_36_29
*805 FILLER_36_3
*806 FILLER_36_41
*807 FILLER_36_53
*808 FILLER_36_65
*809 FILLER_36_77
*810 FILLER_36_83
*811 FILLER_36_85
*812 FILLER_36_97
*813 FILLER_37_105
*814 FILLER_37_111
*815 FILLER_37_113
*816 FILLER_37_125
*817 FILLER_37_137
*818 FILLER_37_149
*819 FILLER_37_15
*820 FILLER_37_161
*821 FILLER_37_167
*822 FILLER_37_169
*823 FILLER_37_181
*824 FILLER_37_189
*825 FILLER_37_27
*826 FILLER_37_3
*827 FILLER_37_39
*828 FILLER_37_51
*829 FILLER_37_55
*830 FILLER_37_57
*831 FILLER_37_69
*832 FILLER_37_81
*833 FILLER_37_93
*834 FILLER_38_109
*835 FILLER_38_121
*836 FILLER_38_133
*837 FILLER_38_139
*838 FILLER_38_141
*839 FILLER_38_15
*840 FILLER_38_153
*841 FILLER_38_165
*842 FILLER_38_177
*843 FILLER_38_189
*844 FILLER_38_27
*845 FILLER_38_29
*846 FILLER_38_3
*847 FILLER_38_41
*848 FILLER_38_53
*849 FILLER_38_65
*850 FILLER_38_77
*851 FILLER_38_83
*852 FILLER_38_85
*853 FILLER_38_97
*854 FILLER_39_105
*855 FILLER_39_111
*856 FILLER_39_113
*857 FILLER_39_125
*858 FILLER_39_137
*859 FILLER_39_149
*860 FILLER_39_15
*861 FILLER_39_161
*862 FILLER_39_167
*863 FILLER_39_169
*864 FILLER_39_181
*865 FILLER_39_189
*866 FILLER_39_27
*867 FILLER_39_3
*868 FILLER_39_39
*869 FILLER_39_51
*870 FILLER_39_55
*871 FILLER_39_57
*872 FILLER_39_69
*873 FILLER_39_81
*874 FILLER_39_93
*875 FILLER_3_105
*876 FILLER_3_111
*877 FILLER_3_113
*878 FILLER_3_125
*879 FILLER_3_137
*880 FILLER_3_149
*881 FILLER_3_161
*882 FILLER_3_167
*883 FILLER_3_169
*884 FILLER_3_17
*885 FILLER_3_181
*886 FILLER_3_189
*887 FILLER_3_29
*888 FILLER_3_41
*889 FILLER_3_5
*890 FILLER_3_53
*891 FILLER_3_57
*892 FILLER_3_69
*893 FILLER_3_81
*894 FILLER_3_93
*895 FILLER_40_109
*896 FILLER_40_121
*897 FILLER_40_133
*898 FILLER_40_139
*899 FILLER_40_141
*900 FILLER_40_15
*901 FILLER_40_153
*902 FILLER_40_165
*903 FILLER_40_177
*904 FILLER_40_189
*905 FILLER_40_27
*906 FILLER_40_29
*907 FILLER_40_3
*908 FILLER_40_41
*909 FILLER_40_53
*910 FILLER_40_65
*911 FILLER_40_77
*912 FILLER_40_83
*913 FILLER_40_85
*914 FILLER_40_97
*915 FILLER_41_105
*916 FILLER_41_111
*917 FILLER_41_113
*918 FILLER_41_125
*919 FILLER_41_137
*920 FILLER_41_149
*921 FILLER_41_15
*922 FILLER_41_161
*923 FILLER_41_167
*924 FILLER_41_169
*925 FILLER_41_181
*926 FILLER_41_189
*927 FILLER_41_27
*928 FILLER_41_3
*929 FILLER_41_39
*930 FILLER_41_51
*931 FILLER_41_55
*932 FILLER_41_57
*933 FILLER_41_69
*934 FILLER_41_81
*935 FILLER_41_93
*936 FILLER_42_109
*937 FILLER_42_121
*938 FILLER_42_133
*939 FILLER_42_139
*940 FILLER_42_141
*941 FILLER_42_15
*942 FILLER_42_153
*943 FILLER_42_165
*944 FILLER_42_177
*945 FILLER_42_189
*946 FILLER_42_27
*947 FILLER_42_29
*948 FILLER_42_3
*949 FILLER_42_41
*950 FILLER_42_53
*951 FILLER_42_65
*952 FILLER_42_77
*953 FILLER_42_83
*954 FILLER_42_85
*955 FILLER_42_97
*956 FILLER_43_105
*957 FILLER_43_111
*958 FILLER_43_113
*959 FILLER_43_125
*960 FILLER_43_137
*961 FILLER_43_149
*962 FILLER_43_15
*963 FILLER_43_161
*964 FILLER_43_167
*965 FILLER_43_169
*966 FILLER_43_181
*967 FILLER_43_189
*968 FILLER_43_27
*969 FILLER_43_3
*970 FILLER_43_39
*971 FILLER_43_51
*972 FILLER_43_55
*973 FILLER_43_57
*974 FILLER_43_69
*975 FILLER_43_81
*976 FILLER_43_93
*977 FILLER_44_109
*978 FILLER_44_121
*979 FILLER_44_133
*980 FILLER_44_139
*981 FILLER_44_141
*982 FILLER_44_15
*983 FILLER_44_153
*984 FILLER_44_165
*985 FILLER_44_177
*986 FILLER_44_189
*987 FILLER_44_27
*988 FILLER_44_29
*989 FILLER_44_3
*990 FILLER_44_41
*991 FILLER_44_53
*992 FILLER_44_65
*993 FILLER_44_77
*994 FILLER_44_83
*995 FILLER_44_85
*996 FILLER_44_97
*997 FILLER_45_105
*998 FILLER_45_111
*999 FILLER_45_113
*1000 FILLER_45_125
*1001 FILLER_45_137
*1002 FILLER_45_149
*1003 FILLER_45_15
*1004 FILLER_45_161
*1005 FILLER_45_167
*1006 FILLER_45_169
*1007 FILLER_45_181
*1008 FILLER_45_189
*1009 FILLER_45_27
*1010 FILLER_45_3
*1011 FILLER_45_39
*1012 FILLER_45_51
*1013 FILLER_45_55
*1014 FILLER_45_57
*1015 FILLER_45_69
*1016 FILLER_45_81
*1017 FILLER_45_93
*1018 FILLER_46_109
*1019 FILLER_46_121
*1020 FILLER_46_133
*1021 FILLER_46_139
*1022 FILLER_46_143
*1023 FILLER_46_15
*1024 FILLER_46_155
*1025 FILLER_46_167
*1026 FILLER_46_179
*1027 FILLER_46_187
*1028 FILLER_46_27
*1029 FILLER_46_29
*1030 FILLER_46_3
*1031 FILLER_46_41
*1032 FILLER_46_53
*1033 FILLER_46_65
*1034 FILLER_46_77
*1035 FILLER_46_83
*1036 FILLER_46_85
*1037 FILLER_46_97
*1038 FILLER_47_105
*1039 FILLER_47_111
*1040 FILLER_47_113
*1041 FILLER_47_125
*1042 FILLER_47_129
*1043 FILLER_47_138
*1044 FILLER_47_145
*1045 FILLER_47_15
*1046 FILLER_47_151
*1047 FILLER_47_163
*1048 FILLER_47_167
*1049 FILLER_47_169
*1050 FILLER_47_181
*1051 FILLER_47_189
*1052 FILLER_47_27
*1053 FILLER_47_3
*1054 FILLER_47_39
*1055 FILLER_47_51
*1056 FILLER_47_55
*1057 FILLER_47_57
*1058 FILLER_47_69
*1059 FILLER_47_81
*1060 FILLER_47_93
*1061 FILLER_48_109
*1062 FILLER_48_121
*1063 FILLER_48_133
*1064 FILLER_48_139
*1065 FILLER_48_143
*1066 FILLER_48_15
*1067 FILLER_48_155
*1068 FILLER_48_167
*1069 FILLER_48_179
*1070 FILLER_48_187
*1071 FILLER_48_27
*1072 FILLER_48_29
*1073 FILLER_48_3
*1074 FILLER_48_41
*1075 FILLER_48_53
*1076 FILLER_48_65
*1077 FILLER_48_77
*1078 FILLER_48_83
*1079 FILLER_48_85
*1080 FILLER_48_97
*1081 FILLER_49_105
*1082 FILLER_49_111
*1083 FILLER_49_135
*1084 FILLER_49_143
*1085 FILLER_49_155
*1086 FILLER_49_158
*1087 FILLER_49_166
*1088 FILLER_49_169
*1089 FILLER_49_181
*1090 FILLER_49_189
*1091 FILLER_49_19
*1092 FILLER_49_3
*1093 FILLER_49_31
*1094 FILLER_49_43
*1095 FILLER_49_55
*1096 FILLER_49_57
*1097 FILLER_49_69
*1098 FILLER_49_7
*1099 FILLER_49_81
*1100 FILLER_49_93
*1101 FILLER_4_109
*1102 FILLER_4_121
*1103 FILLER_4_133
*1104 FILLER_4_139
*1105 FILLER_4_141
*1106 FILLER_4_153
*1107 FILLER_4_165
*1108 FILLER_4_177
*1109 FILLER_4_189
*1110 FILLER_4_19
*1111 FILLER_4_27
*1112 FILLER_4_29
*1113 FILLER_4_41
*1114 FILLER_4_53
*1115 FILLER_4_65
*1116 FILLER_4_7
*1117 FILLER_4_77
*1118 FILLER_4_83
*1119 FILLER_4_85
*1120 FILLER_4_97
*1121 FILLER_50_109
*1122 FILLER_50_11
*1123 FILLER_50_121
*1124 FILLER_50_133
*1125 FILLER_50_139
*1126 FILLER_50_146
*1127 FILLER_50_152
*1128 FILLER_50_156
*1129 FILLER_50_162
*1130 FILLER_50_168
*1131 FILLER_50_180
*1132 FILLER_50_188
*1133 FILLER_50_23
*1134 FILLER_50_27
*1135 FILLER_50_29
*1136 FILLER_50_3
*1137 FILLER_50_41
*1138 FILLER_50_53
*1139 FILLER_50_65
*1140 FILLER_50_77
*1141 FILLER_50_83
*1142 FILLER_50_85
*1143 FILLER_50_97
*1144 FILLER_51_105
*1145 FILLER_51_111
*1146 FILLER_51_113
*1147 FILLER_51_121
*1148 FILLER_51_137
*1149 FILLER_51_145
*1150 FILLER_51_15
*1151 FILLER_51_152
*1152 FILLER_51_161
*1153 FILLER_51_167
*1154 FILLER_51_171
*1155 FILLER_51_177
*1156 FILLER_51_183
*1157 FILLER_51_186
*1158 FILLER_51_27
*1159 FILLER_51_3
*1160 FILLER_51_39
*1161 FILLER_51_51
*1162 FILLER_51_55
*1163 FILLER_51_57
*1164 FILLER_51_69
*1165 FILLER_51_81
*1166 FILLER_51_93
*1167 FILLER_52_109
*1168 FILLER_52_117
*1169 FILLER_52_122
*1170 FILLER_52_128
*1171 FILLER_52_136
*1172 FILLER_52_149
*1173 FILLER_52_15
*1174 FILLER_52_161
*1175 FILLER_52_170
*1176 FILLER_52_177
*1177 FILLER_52_186
*1178 FILLER_52_27
*1179 FILLER_52_29
*1180 FILLER_52_3
*1181 FILLER_52_41
*1182 FILLER_52_53
*1183 FILLER_52_65
*1184 FILLER_52_77
*1185 FILLER_52_83
*1186 FILLER_52_85
*1187 FILLER_52_97
*1188 FILLER_53_105
*1189 FILLER_53_111
*1190 FILLER_53_113
*1191 FILLER_53_119
*1192 FILLER_53_127
*1193 FILLER_53_136
*1194 FILLER_53_15
*1195 FILLER_53_153
*1196 FILLER_53_164
*1197 FILLER_53_174
*1198 FILLER_53_181
*1199 FILLER_53_189
*1200 FILLER_53_27
*1201 FILLER_53_3
*1202 FILLER_53_39
*1203 FILLER_53_51
*1204 FILLER_53_55
*1205 FILLER_53_57
*1206 FILLER_53_69
*1207 FILLER_53_81
*1208 FILLER_53_93
*1209 FILLER_54_105
*1210 FILLER_54_110
*1211 FILLER_54_117
*1212 FILLER_54_126
*1213 FILLER_54_136
*1214 FILLER_54_144
*1215 FILLER_54_15
*1216 FILLER_54_169
*1217 FILLER_54_179
*1218 FILLER_54_186
*1219 FILLER_54_27
*1220 FILLER_54_29
*1221 FILLER_54_3
*1222 FILLER_54_41
*1223 FILLER_54_53
*1224 FILLER_54_65
*1225 FILLER_54_77
*1226 FILLER_54_83
*1227 FILLER_54_85
*1228 FILLER_54_97
*1229 FILLER_55_105
*1230 FILLER_55_111
*1231 FILLER_55_115
*1232 FILLER_55_119
*1233 FILLER_55_122
*1234 FILLER_55_131
*1235 FILLER_55_140
*1236 FILLER_55_15
*1237 FILLER_55_153
*1238 FILLER_55_163
*1239 FILLER_55_167
*1240 FILLER_55_174
*1241 FILLER_55_181
*1242 FILLER_55_189
*1243 FILLER_55_27
*1244 FILLER_55_3
*1245 FILLER_55_39
*1246 FILLER_55_51
*1247 FILLER_55_55
*1248 FILLER_55_57
*1249 FILLER_55_69
*1250 FILLER_55_81
*1251 FILLER_55_93
*1252 FILLER_56_109
*1253 FILLER_56_123
*1254 FILLER_56_129
*1255 FILLER_56_136
*1256 FILLER_56_146
*1257 FILLER_56_15
*1258 FILLER_56_167
*1259 FILLER_56_176
*1260 FILLER_56_188
*1261 FILLER_56_27
*1262 FILLER_56_29
*1263 FILLER_56_3
*1264 FILLER_56_41
*1265 FILLER_56_53
*1266 FILLER_56_65
*1267 FILLER_56_77
*1268 FILLER_56_83
*1269 FILLER_56_85
*1270 FILLER_56_97
*1271 FILLER_57_105
*1272 FILLER_57_111
*1273 FILLER_57_113
*1274 FILLER_57_125
*1275 FILLER_57_140
*1276 FILLER_57_147
*1277 FILLER_57_15
*1278 FILLER_57_164
*1279 FILLER_57_172
*1280 FILLER_57_184
*1281 FILLER_57_27
*1282 FILLER_57_3
*1283 FILLER_57_39
*1284 FILLER_57_51
*1285 FILLER_57_55
*1286 FILLER_57_57
*1287 FILLER_57_69
*1288 FILLER_57_81
*1289 FILLER_57_93
*1290 FILLER_58_109
*1291 FILLER_58_121
*1292 FILLER_58_125
*1293 FILLER_58_134
*1294 FILLER_58_149
*1295 FILLER_58_15
*1296 FILLER_58_155
*1297 FILLER_58_172
*1298 FILLER_58_184
*1299 FILLER_58_27
*1300 FILLER_58_29
*1301 FILLER_58_3
*1302 FILLER_58_41
*1303 FILLER_58_53
*1304 FILLER_58_65
*1305 FILLER_58_77
*1306 FILLER_58_83
*1307 FILLER_58_85
*1308 FILLER_58_97
*1309 FILLER_59_105
*1310 FILLER_59_111
*1311 FILLER_59_113
*1312 FILLER_59_121
*1313 FILLER_59_125
*1314 FILLER_59_132
*1315 FILLER_59_141
*1316 FILLER_59_149
*1317 FILLER_59_15
*1318 FILLER_59_161
*1319 FILLER_59_167
*1320 FILLER_59_169
*1321 FILLER_59_181
*1322 FILLER_59_189
*1323 FILLER_59_27
*1324 FILLER_59_3
*1325 FILLER_59_39
*1326 FILLER_59_51
*1327 FILLER_59_55
*1328 FILLER_59_57
*1329 FILLER_59_69
*1330 FILLER_59_81
*1331 FILLER_59_93
*1332 FILLER_5_105
*1333 FILLER_5_111
*1334 FILLER_5_113
*1335 FILLER_5_125
*1336 FILLER_5_137
*1337 FILLER_5_149
*1338 FILLER_5_15
*1339 FILLER_5_161
*1340 FILLER_5_167
*1341 FILLER_5_169
*1342 FILLER_5_181
*1343 FILLER_5_189
*1344 FILLER_5_27
*1345 FILLER_5_3
*1346 FILLER_5_39
*1347 FILLER_5_51
*1348 FILLER_5_55
*1349 FILLER_5_57
*1350 FILLER_5_69
*1351 FILLER_5_81
*1352 FILLER_5_93
*1353 FILLER_60_109
*1354 FILLER_60_121
*1355 FILLER_60_133
*1356 FILLER_60_139
*1357 FILLER_60_141
*1358 FILLER_60_144
*1359 FILLER_60_15
*1360 FILLER_60_156
*1361 FILLER_60_168
*1362 FILLER_60_180
*1363 FILLER_60_188
*1364 FILLER_60_27
*1365 FILLER_60_29
*1366 FILLER_60_3
*1367 FILLER_60_41
*1368 FILLER_60_53
*1369 FILLER_60_65
*1370 FILLER_60_77
*1371 FILLER_60_83
*1372 FILLER_60_85
*1373 FILLER_60_97
*1374 FILLER_61_105
*1375 FILLER_61_111
*1376 FILLER_61_113
*1377 FILLER_61_125
*1378 FILLER_61_137
*1379 FILLER_61_149
*1380 FILLER_61_15
*1381 FILLER_61_161
*1382 FILLER_61_167
*1383 FILLER_61_169
*1384 FILLER_61_181
*1385 FILLER_61_189
*1386 FILLER_61_27
*1387 FILLER_61_3
*1388 FILLER_61_39
*1389 FILLER_61_51
*1390 FILLER_61_55
*1391 FILLER_61_57
*1392 FILLER_61_69
*1393 FILLER_61_81
*1394 FILLER_61_93
*1395 FILLER_62_109
*1396 FILLER_62_121
*1397 FILLER_62_133
*1398 FILLER_62_139
*1399 FILLER_62_148
*1400 FILLER_62_15
*1401 FILLER_62_160
*1402 FILLER_62_172
*1403 FILLER_62_184
*1404 FILLER_62_27
*1405 FILLER_62_29
*1406 FILLER_62_3
*1407 FILLER_62_41
*1408 FILLER_62_53
*1409 FILLER_62_65
*1410 FILLER_62_77
*1411 FILLER_62_83
*1412 FILLER_62_85
*1413 FILLER_62_97
*1414 FILLER_63_105
*1415 FILLER_63_111
*1416 FILLER_63_113
*1417 FILLER_63_125
*1418 FILLER_63_137
*1419 FILLER_63_149
*1420 FILLER_63_15
*1421 FILLER_63_161
*1422 FILLER_63_167
*1423 FILLER_63_169
*1424 FILLER_63_181
*1425 FILLER_63_189
*1426 FILLER_63_27
*1427 FILLER_63_3
*1428 FILLER_63_39
*1429 FILLER_63_51
*1430 FILLER_63_55
*1431 FILLER_63_57
*1432 FILLER_63_69
*1433 FILLER_63_81
*1434 FILLER_63_93
*1435 FILLER_64_109
*1436 FILLER_64_121
*1437 FILLER_64_133
*1438 FILLER_64_139
*1439 FILLER_64_141
*1440 FILLER_64_15
*1441 FILLER_64_153
*1442 FILLER_64_165
*1443 FILLER_64_177
*1444 FILLER_64_189
*1445 FILLER_64_27
*1446 FILLER_64_29
*1447 FILLER_64_3
*1448 FILLER_64_41
*1449 FILLER_64_53
*1450 FILLER_64_65
*1451 FILLER_64_77
*1452 FILLER_64_83
*1453 FILLER_64_85
*1454 FILLER_64_97
*1455 FILLER_65_105
*1456 FILLER_65_111
*1457 FILLER_65_113
*1458 FILLER_65_125
*1459 FILLER_65_137
*1460 FILLER_65_149
*1461 FILLER_65_161
*1462 FILLER_65_167
*1463 FILLER_65_169
*1464 FILLER_65_181
*1465 FILLER_65_189
*1466 FILLER_65_19
*1467 FILLER_65_31
*1468 FILLER_65_43
*1469 FILLER_65_55
*1470 FILLER_65_57
*1471 FILLER_65_69
*1472 FILLER_65_7
*1473 FILLER_65_81
*1474 FILLER_65_93
*1475 FILLER_66_109
*1476 FILLER_66_121
*1477 FILLER_66_133
*1478 FILLER_66_139
*1479 FILLER_66_141
*1480 FILLER_66_15
*1481 FILLER_66_153
*1482 FILLER_66_165
*1483 FILLER_66_177
*1484 FILLER_66_189
*1485 FILLER_66_27
*1486 FILLER_66_29
*1487 FILLER_66_3
*1488 FILLER_66_41
*1489 FILLER_66_53
*1490 FILLER_66_65
*1491 FILLER_66_77
*1492 FILLER_66_83
*1493 FILLER_66_85
*1494 FILLER_66_97
*1495 FILLER_67_105
*1496 FILLER_67_111
*1497 FILLER_67_113
*1498 FILLER_67_125
*1499 FILLER_67_137
*1500 FILLER_67_149
*1501 FILLER_67_15
*1502 FILLER_67_161
*1503 FILLER_67_167
*1504 FILLER_67_169
*1505 FILLER_67_181
*1506 FILLER_67_189
*1507 FILLER_67_27
*1508 FILLER_67_3
*1509 FILLER_67_39
*1510 FILLER_67_51
*1511 FILLER_67_55
*1512 FILLER_67_57
*1513 FILLER_67_69
*1514 FILLER_67_81
*1515 FILLER_67_93
*1516 FILLER_68_109
*1517 FILLER_68_121
*1518 FILLER_68_133
*1519 FILLER_68_139
*1520 FILLER_68_141
*1521 FILLER_68_15
*1522 FILLER_68_153
*1523 FILLER_68_165
*1524 FILLER_68_177
*1525 FILLER_68_189
*1526 FILLER_68_27
*1527 FILLER_68_29
*1528 FILLER_68_3
*1529 FILLER_68_41
*1530 FILLER_68_53
*1531 FILLER_68_65
*1532 FILLER_68_77
*1533 FILLER_68_83
*1534 FILLER_68_85
*1535 FILLER_68_97
*1536 FILLER_69_105
*1537 FILLER_69_111
*1538 FILLER_69_113
*1539 FILLER_69_125
*1540 FILLER_69_137
*1541 FILLER_69_149
*1542 FILLER_69_15
*1543 FILLER_69_161
*1544 FILLER_69_167
*1545 FILLER_69_169
*1546 FILLER_69_181
*1547 FILLER_69_189
*1548 FILLER_69_27
*1549 FILLER_69_3
*1550 FILLER_69_39
*1551 FILLER_69_51
*1552 FILLER_69_55
*1553 FILLER_69_57
*1554 FILLER_69_69
*1555 FILLER_69_81
*1556 FILLER_69_93
*1557 FILLER_6_109
*1558 FILLER_6_121
*1559 FILLER_6_133
*1560 FILLER_6_139
*1561 FILLER_6_141
*1562 FILLER_6_15
*1563 FILLER_6_153
*1564 FILLER_6_165
*1565 FILLER_6_177
*1566 FILLER_6_189
*1567 FILLER_6_27
*1568 FILLER_6_29
*1569 FILLER_6_3
*1570 FILLER_6_41
*1571 FILLER_6_53
*1572 FILLER_6_65
*1573 FILLER_6_77
*1574 FILLER_6_83
*1575 FILLER_6_85
*1576 FILLER_6_97
*1577 FILLER_70_109
*1578 FILLER_70_121
*1579 FILLER_70_133
*1580 FILLER_70_139
*1581 FILLER_70_141
*1582 FILLER_70_15
*1583 FILLER_70_153
*1584 FILLER_70_165
*1585 FILLER_70_177
*1586 FILLER_70_189
*1587 FILLER_70_27
*1588 FILLER_70_29
*1589 FILLER_70_3
*1590 FILLER_70_41
*1591 FILLER_70_53
*1592 FILLER_70_65
*1593 FILLER_70_77
*1594 FILLER_70_83
*1595 FILLER_70_85
*1596 FILLER_70_97
*1597 FILLER_71_105
*1598 FILLER_71_111
*1599 FILLER_71_113
*1600 FILLER_71_125
*1601 FILLER_71_137
*1602 FILLER_71_149
*1603 FILLER_71_15
*1604 FILLER_71_161
*1605 FILLER_71_167
*1606 FILLER_71_169
*1607 FILLER_71_181
*1608 FILLER_71_189
*1609 FILLER_71_27
*1610 FILLER_71_3
*1611 FILLER_71_39
*1612 FILLER_71_51
*1613 FILLER_71_55
*1614 FILLER_71_57
*1615 FILLER_71_69
*1616 FILLER_71_81
*1617 FILLER_71_93
*1618 FILLER_72_109
*1619 FILLER_72_121
*1620 FILLER_72_133
*1621 FILLER_72_139
*1622 FILLER_72_141
*1623 FILLER_72_15
*1624 FILLER_72_153
*1625 FILLER_72_165
*1626 FILLER_72_177
*1627 FILLER_72_181
*1628 FILLER_72_184
*1629 FILLER_72_27
*1630 FILLER_72_29
*1631 FILLER_72_3
*1632 FILLER_72_41
*1633 FILLER_72_53
*1634 FILLER_72_65
*1635 FILLER_72_77
*1636 FILLER_72_83
*1637 FILLER_72_85
*1638 FILLER_72_97
*1639 FILLER_73_105
*1640 FILLER_73_111
*1641 FILLER_73_113
*1642 FILLER_73_125